/*---------------------------------------------------------------------------*\
  =========                 |
  \\      /  F ield         | OpenFOAM: The Open Source CFD Toolbox
   \\    /   O peration     | Website:  https://openfoam.org
    \\  /    A nd           | Version:  11
     \\/     M anipulation  |
\*---------------------------------------------------------------------------*/
Build  : 11-642b6a1f5c7b
Exec   : additiveFoam -parallel
Date   : Oct 13 2023
Time   : 11:19:43
Host   : "lap133367"
PID    : 425927
I/O    : uncollated
Case   : /home/khk/OpenFOAM/additiveFoam-public/AdditiveFOAM/tutorials/AMB2018-02-B-AMR
nProcs : 4
Slaves : 
3
(
"lap133367.425928"
"lap133367.425929"
"lap133367.425930"
)

Pstream initialised with:
    floatTransfer      : false
    nProcsSimpleSum    : 0
    commsType          : nonBlocking
    polling iterations : 0
sigFpe : Enabling floating point exception trapping (FOAM_SIGFPE).
fileModificationChecking : Monitoring run-time modified files using timeStampMaster (fileModificationSkew 10)
allowSystemOperations : Allowing user-supplied system call operations

// * * * * * * * * * * * * * * * * * * * * * * * * * * * * * * * * * * * * * //
Create time

Create mesh for time = 0

Selecting fvMeshTopoChanger refiner
Selecting fvMeshDistributor distributor
Selecting distributor zoltan
Selecting decompositionConstraint refinementHistory
refinementHistory : setting constraints to preserve refinement history

PIMPLE: No convergence criteria found


PIMPLE: Operating solver in transient mode with 0 outer correctors


Reading field T

Setting auxiliary fields for solidification model

Reading field p_rgh

Reading field U

Reading/calculating face flux field phi


Reading g
No MRF models present

Adding heatSourceModel for beam
Selecting heatSource model superGaussian
Selecting absorption model constant
Reading scan path from: "/home/khk/OpenFOAM/additiveFoam-public/AdditiveFOAM/tutorials/AMB2018-02-B-AMR/constant/scanPath"
1	0
2	0.0025
Initial path index: 2
Path end time: 0.0025

Starting time loop

Courant Number mean: 0 max: 0
deltaT = 1e-06
Time = 1e-06

absorbed power: 35.653048
DILUPBiCGStab:  Solving for T, Initial residual = 1, Final residual = 6.8508789e-17, No Iterations 2
Thermo: iteration 0 residual: 0
ExecutionTime = 0.013369 s  ClockTime = 0 s

Courant Number mean: 0 max: 0
deltaT = 1e-06
Selected 36 cells for refinement out of 3600.
Refined from 3600 to 3852 cells.
Selected 0 split points out of a possible 36.
Time = 2e-06

absorbed power: 53.428533
DILUPBiCGStab:  Solving for T, Initial residual = 0.082573901, Final residual = 7.0780809e-16, No Iterations 3
Thermo: iteration 0 residual: 0
ExecutionTime = 0.020601 s  ClockTime = 0 s

Courant Number mean: 0 max: 0
deltaT = 1e-06
Selected 144 cells for refinement out of 3852.
Refined from 3852 to 4860 cells.
Selected 0 split points out of a possible 152.
Time = 3e-06

absorbed power: 53.5673
DILUPBiCGStab:  Solving for T, Initial residual = 0.0063737723, Final residual = 6.3903537e-16, No Iterations 3
Thermo: iteration 0 residual: 0
ExecutionTime = 0.031265 s  ClockTime = 0 s

Courant Number mean: 0 max: 0
deltaT = 1e-06
Selected 2 cells for refinement out of 4860.
Refined from 4860 to 4874 cells.
Selected 4 split points out of a possible 154.
Unrefined from 4874 to 4846 cells.
Time = 4e-06

absorbed power: 53.566271
DILUPBiCGStab:  Solving for T, Initial residual = 0.0039651659, Final residual = 4.8699759e-16, No Iterations 3
Thermo: iteration 0 residual: 2.220446e-16
ExecutionTime = 0.051445 s  ClockTime = 0 s

Courant Number mean: 0 max: 0
deltaT = 1e-06
Selected 0 cells for refinement out of 4846.
Selected 0 split points out of a possible 154.
Time = 5e-06

absorbed power: 53.565511
DILUPBiCGStab:  Solving for T, Initial residual = 0.0028827928, Final residual = 4.5904238e-16, No Iterations 3
Thermo: iteration 0 residual: 0
ExecutionTime = 0.052953 s  ClockTime = 0 s

Courant Number mean: 0 max: 0
deltaT = 1e-06
Selected 2 cells for refinement out of 4846.
Refined from 4846 to 4860 cells.
Selected 0 split points out of a possible 154.
Time = 6e-06

absorbed power: 53.567813
DILUPBiCGStab:  Solving for T, Initial residual = 0.0022694598, Final residual = 4.761046e-16, No Iterations 3
Thermo: iteration 0 residual: 0
ExecutionTime = 0.063088 s  ClockTime = 0 s

Courant Number mean: 0 max: 0
deltaT = 1e-06
Selected 0 cells for refinement out of 4860.
Selected 0 split points out of a possible 154.
Time = 7e-06

absorbed power: 53.56676
DILUPBiCGStab:  Solving for T, Initial residual = 0.0018687908, Final residual = 4.8687116e-16, No Iterations 3
Thermo: iteration 0 residual: 0
ExecutionTime = 0.064603 s  ClockTime = 0 s

Courant Number mean: 0 max: 0
deltaT = 1e-06
Selected 0 cells for refinement out of 4860.
Selected 0 split points out of a possible 154.
Time = 8e-06

absorbed power: 53.56552
DILUPBiCGStab:  Solving for T, Initial residual = 0.001588468, Final residual = 4.9564921e-16, No Iterations 3
Thermo: iteration 0 residual: 0
ExecutionTime = 0.066064 s  ClockTime = 0 s

Courant Number mean: 0 max: 0
deltaT = 1e-06
Selected 4 cells for refinement out of 4860.
Refined from 4860 to 4888 cells.
Selected 0 split points out of a possible 156.
Time = 9e-06

absorbed power: 53.577472
DILUPBiCGStab:  Solving for T, Initial residual = 0.0013875653, Final residual = 5.0818517e-16, No Iterations 3
Thermo: iteration 0 residual: 0
ExecutionTime = 0.076452 s  ClockTime = 0 s

Courant Number mean: 0 max: 0
deltaT = 1e-06
Selected 0 cells for refinement out of 4888.
Selected 0 split points out of a possible 156.
Time = 1e-05

absorbed power: 53.576235
DILUPBiCGStab:  Solving for T, Initial residual = 0.0012275185, Final residual = 5.2062988e-16, No Iterations 3
Thermo: iteration 0 residual: 0
ExecutionTime = 0.077932 s  ClockTime = 0 s

Courant Number mean: 0 max: 0
deltaT = 1e-06
Selected 0 cells for refinement out of 4888.
Selected 2 split points out of a possible 156.
Unrefined from 4888 to 4874 cells.
Redistributing mesh with imbalance 0.26190476
refinementHistory add : found refinementHistory
refinementHistory add : adding refinementHistory 
refinementHistory apply : found refinementHistory
refinementHistory apply : adding refinementHistory 
Time = 1.1e-05

absorbed power: 53.565414
DILUPBiCGStab:  Solving for T, Initial residual = 1, Final residual = 8.5448197e-16, No Iterations 1
Thermo: iteration 0 residual: 2.220446e-16
ExecutionTime = 0.105239 s  ClockTime = 0 s

Courant Number mean: 0 max: 0
deltaT = 1e-06
Selected 0 cells for refinement out of 4874.
Selected 2 split points out of a possible 154.
Unrefined from 4874 to 4860 cells.
Time = 1.2e-05

absorbed power: 53.561327
DILUPBiCGStab:  Solving for T, Initial residual = 0.0011807919, Final residual = 9.6260849e-16, No Iterations 3
Thermo: iteration 0 residual: 0
ExecutionTime = 0.113678 s  ClockTime = 0 s

Courant Number mean: 0 max: 0
deltaT = 1e-06
Selected 2 cells for refinement out of 4860.
Refined from 4860 to 4874 cells.
Selected 0 split points out of a possible 154.
Time = 1.3e-05

absorbed power: 53.570167
DILUPBiCGStab:  Solving for T, Initial residual = 0.0010828992, Final residual = 8.1181076e-17, No Iterations 4
Thermo: iteration 0 residual: 0
ExecutionTime = 0.121386 s  ClockTime = 0 s

Courant Number mean: 0 max: 0
deltaT = 1e-06
Selected 0 cells for refinement out of 4874.
Selected 0 split points out of a possible 154.
Time = 1.4e-05

absorbed power: 53.568831
DILUPBiCGStab:  Solving for T, Initial residual = 0.00098418807, Final residual = 9.4148939e-17, No Iterations 4
Thermo: iteration 0 residual: 0
ExecutionTime = 0.12278 s  ClockTime = 0 s

Courant Number mean: 0 max: 0
deltaT = 1e-06
Selected 0 cells for refinement out of 4874.
Selected 0 split points out of a possible 154.
Time = 1.5e-05

absorbed power: 53.567291
DILUPBiCGStab:  Solving for T, Initial residual = 0.00090193932, Final residual = 1.0708008e-16, No Iterations 4
Thermo: iteration 0 residual: 0
ExecutionTime = 0.124079 s  ClockTime = 0 s

Courant Number mean: 0 max: 0
deltaT = 1e-06
Selected 0 cells for refinement out of 4874.
Selected 0 split points out of a possible 154.
Time = 1.6e-05

absorbed power: 53.565544
DILUPBiCGStab:  Solving for T, Initial residual = 0.00083211467, Final residual = 1.1961954e-16, No Iterations 4
Thermo: iteration 0 residual: 0
ExecutionTime = 0.125364 s  ClockTime = 0 s

Courant Number mean: 0 max: 0
deltaT = 1e-06
Selected 8 cells for refinement out of 4874.
Refined from 4874 to 4930 cells.
Selected 4 split points out of a possible 162.
Unrefined from 4930 to 4902 cells.
Time = 1.7e-05

absorbed power: 53.578588
DILUPBiCGStab:  Solving for T, Initial residual = 0.00077665639, Final residual = 1.3090991e-16, No Iterations 4
Thermo: iteration 0 residual: 0
ExecutionTime = 0.140029 s  ClockTime = 0 s

Courant Number mean: 0 max: 0
deltaT = 1e-06
Selected 0 cells for refinement out of 4902.
Selected 0 split points out of a possible 160.
Time = 1.8e-05

absorbed power: 53.578371
DILUPBiCGStab:  Solving for T, Initial residual = 0.00072597568, Final residual = 1.4249919e-16, No Iterations 4
Thermo: iteration 0 residual: 0
ExecutionTime = 0.141431 s  ClockTime = 0 s

Courant Number mean: 0 max: 0
deltaT = 1e-06
Selected 0 cells for refinement out of 4902.
Selected 0 split points out of a possible 160.
Time = 1.9e-05

absorbed power: 53.577991
DILUPBiCGStab:  Solving for T, Initial residual = 0.00068015134, Final residual = 1.5245548e-16, No Iterations 4
Thermo: iteration 0 residual: 0
ExecutionTime = 0.142922 s  ClockTime = 0 s

Courant Number mean: 0 max: 0
deltaT = 1e-06
Selected 0 cells for refinement out of 4902.
Selected 0 split points out of a possible 160.
Time = 2e-05

absorbed power: 53.577447
DILUPBiCGStab:  Solving for T, Initial residual = 0.00063956752, Final residual = 1.6123083e-16, No Iterations 4
Thermo: iteration 0 residual: 0
ExecutionTime = 0.144329 s  ClockTime = 0 s

Courant Number mean: 0 max: 0
deltaT = 1e-06
Selected 0 cells for refinement out of 4902.
Selected 0 split points out of a possible 160.
Time = 2.1e-05

absorbed power: 53.576739
DILUPBiCGStab:  Solving for T, Initial residual = 0.00060339661, Final residual = 1.6874418e-16, No Iterations 4
Thermo: iteration 0 residual: 0
ExecutionTime = 0.145722 s  ClockTime = 0 s

Courant Number mean: 0 max: 0
deltaT = 1e-06
Selected 0 cells for refinement out of 4902.
Selected 2 split points out of a possible 160.
Unrefined from 4902 to 4888 cells.
Time = 2.2e-05

absorbed power: 53.566488
DILUPBiCGStab:  Solving for T, Initial residual = 0.00056989656, Final residual = 1.7450206e-16, No Iterations 4
Thermo: iteration 0 residual: 0
ExecutionTime = 0.15464 s  ClockTime = 0 s

Courant Number mean: 0 max: 0
deltaT = 1e-06
Selected 2 cells for refinement out of 4888.
Refined from 4888 to 4902 cells.
Selected 0 split points out of a possible 160.
Time = 2.3e-05

absorbed power: 53.568826
DILUPBiCGStab:  Solving for T, Initial residual = 0.00054191174, Final residual = 1.8002561e-16, No Iterations 4
Thermo: iteration 0 residual: 0
ExecutionTime = 0.162793 s  ClockTime = 0 s

Courant Number mean: 0 max: 0
deltaT = 1e-06
Selected 2 cells for refinement out of 4902.
Refined from 4902 to 4916 cells.
Selected 0 split points out of a possible 162.
Time = 2.4e-05

absorbed power: 53.578813
DILUPBiCGStab:  Solving for T, Initial residual = 0.00051684069, Final residual = 1.8463148e-16, No Iterations 4
Thermo: iteration 0 residual: 0
ExecutionTime = 0.170883 s  ClockTime = 0 s

Courant Number mean: 0 max: 0
deltaT = 1e-06
Selected 0 cells for refinement out of 4916.
Selected 4 split points out of a possible 162.
Unrefined from 4916 to 4888 cells.
Time = 2.5e-05

absorbed power: 53.568717
DILUPBiCGStab:  Solving for T, Initial residual = 1, Final residual = 2.1429257e-17, No Iterations 1
Thermo: iteration 0 residual: 2.220446e-16
ExecutionTime = 0.179437 s  ClockTime = 0 s

Courant Number mean: 0 max: 0
deltaT = 1e-06
Selected 0 cells for refinement out of 4888.
Selected 2 split points out of a possible 158.
Unrefined from 4888 to 4874 cells.
Time = 2.6e-05

absorbed power: 53.565231
DILUPBiCGStab:  Solving for T, Initial residual = 0.00051241703, Final residual = 2.6674852e-16, No Iterations 4
Thermo: iteration 0 residual: 0
ExecutionTime = 0.188038 s  ClockTime = 0 s

Courant Number mean: 0 max: 0
deltaT = 1e-06
Selected 0 cells for refinement out of 4874.
Selected 0 split points out of a possible 156.
Time = 2.7e-05

absorbed power: 53.564613
DILUPBiCGStab:  Solving for T, Initial residual = 0.00048947773, Final residual = 2.7454481e-16, No Iterations 4
Thermo: iteration 0 residual: 0
ExecutionTime = 0.189453 s  ClockTime = 0 s

Courant Number mean: 0 max: 0
deltaT = 1e-06
Selected 0 cells for refinement out of 4874.
Selected 0 split points out of a possible 156.
Time = 2.8e-05

absorbed power: 53.563827
DILUPBiCGStab:  Solving for T, Initial residual = 0.00046635832, Final residual = 2.7983856e-16, No Iterations 4
Thermo: iteration 0 residual: 0
ExecutionTime = 0.190912 s  ClockTime = 0 s

Courant Number mean: 0 max: 0
deltaT = 1e-06
Selected 0 cells for refinement out of 4874.
Selected 4 split points out of a possible 156.
Unrefined from 4874 to 4846 cells.
Time = 2.9e-05

absorbed power: 53.548767
DILUPBiCGStab:  Solving for T, Initial residual = 0.00044431087, Final residual = 2.8288757e-16, No Iterations 4
Thermo: iteration 0 residual: 2.220446e-16
ExecutionTime = 0.199887 s  ClockTime = 0 s

Courant Number mean: 0 max: 0
deltaT = 1e-06
Selected 0 cells for refinement out of 4846.
Selected 0 split points out of a possible 152.
Time = 3e-05

absorbed power: 53.548353
DILUPBiCGStab:  Solving for T, Initial residual = 0.00041954314, Final residual = 1.080617e-16, No Iterations 4
Thermo: iteration 0 residual: 0.09039885
DILUPBiCGStab:  Solving for T, Initial residual = 2.7754128e-16, Final residual = 2.479003e-18, No Iterations 1
Thermo: iteration 1 residual: 2.1649349e-14
ExecutionTime = 0.201506 s  ClockTime = 0 s

Courant Number mean: 0 max: 0
deltaT = 1e-06
Selected 0 cells for refinement out of 4846.
Selected 0 split points out of a possible 152.
Redistributing mesh with imbalance 0.11147812
refinementHistory add : found refinementHistory
refinementHistory add : adding refinementHistory 
refinementHistory apply : found refinementHistory
refinementHistory apply : adding refinementHistory 
Time = 3.1e-05

absorbed power: 53.547734
DILUPBiCGStab:  Solving for T, Initial residual = 0.00040749228, Final residual = 7.9724208e-16, No Iterations 4
Thermo: iteration 0 residual: 0.059041461
DILUPBiCGStab:  Solving for T, Initial residual = 1.4856456e-06, Final residual = 4.7773456e-17, No Iterations 3
Thermo: iteration 1 residual: 0.014500064
DILUPBiCGStab:  Solving for T, Initial residual = 1.1345067e-16, Final residual = 2.8688864e-18, No Iterations 1
Thermo: iteration 2 residual: 3.7858605e-14
ExecutionTime = 0.219354 s  ClockTime = 0 s

Courant Number mean: 0 max: 0
deltaT = 1e-06
Selected 0 cells for refinement out of 4846.
Selected 0 split points out of a possible 152.
Time = 3.2e-05

absorbed power: 53.54691
DILUPBiCGStab:  Solving for T, Initial residual = 0.00039135998, Final residual = 7.8946667e-16, No Iterations 4
Thermo: iteration 0 residual: 0.059210569
DILUPBiCGStab:  Solving for T, Initial residual = 3.5308013e-06, Final residual = 7.5859813e-17, No Iterations 3
Thermo: iteration 1 residual: 0.033515083
DILUPBiCGStab:  Solving for T, Initial residual = 1.4409751e-16, Final residual = 2.961142e-18, No Iterations 1
Thermo: iteration 2 residual: 1.5809576e-13
ExecutionTime = 0.220997 s  ClockTime = 0 s

Courant Number mean: 0 max: 0
deltaT = 1e-06
Selected 4 cells for refinement out of 4846.
Refined from 4846 to 4874 cells.
Selected 4 split points out of a possible 156.
Unrefined from 4874 to 4846 cells.
Time = 3.3e-05

absorbed power: 53.548586
DILUPBiCGStab:  Solving for T, Initial residual = 1, Final residual = 3.1894391e-16, No Iterations 1
Thermo: iteration 0 residual: 0.057104418
DILUPBiCGStab:  Solving for T, Initial residual = 0.0035283941, Final residual = 8.2248773e-16, No Iterations 3
Thermo: iteration 1 residual: 0.0083537806
DILUPBiCGStab:  Solving for T, Initial residual = 0.0022879899, Final residual = 7.9545846e-17, No Iterations 2
Thermo: iteration 2 residual: 5.6954441e-13
ExecutionTime = 0.238312 s  ClockTime = 0 s

Courant Number mean: 0 max: 0
deltaT = 1e-06
Selected 0 cells for refinement out of 4846.
Selected 0 split points out of a possible 152.
Time = 3.4e-05

absorbed power: 53.548898
DILUPBiCGStab:  Solving for T, Initial residual = 0.00036359654, Final residual = 9.0185224e-16, No Iterations 4
Thermo: iteration 0 residual: 0.059080837
DILUPBiCGStab:  Solving for T, Initial residual = 1.591735e-06, Final residual = 4.6081443e-17, No Iterations 3
Thermo: iteration 1 residual: 0.017335493
DILUPBiCGStab:  Solving for T, Initial residual = 1.0814634e-16, Final residual = 2.0501321e-18, No Iterations 1
Thermo: iteration 2 residual: 2.1649349e-14
ExecutionTime = 0.239933 s  ClockTime = 0 s

Courant Number mean: 0 max: 0
deltaT = 1e-06
Selected 0 cells for refinement out of 4846.
Selected 0 split points out of a possible 152.
Time = 3.5e-05

absorbed power: 53.549004
DILUPBiCGStab:  Solving for T, Initial residual = 0.00035096363, Final residual = 9.6936771e-16, No Iterations 4
Thermo: iteration 0 residual: 0.059636117
DILUPBiCGStab:  Solving for T, Initial residual = 1.0896385e-15, Final residual = 1.9476477e-17, No Iterations 1
Thermo: iteration 1 residual: 2.5990321e-13
ExecutionTime = 0.241381 s  ClockTime = 0 s

Courant Number mean: 0 max: 0
deltaT = 1e-06
Selected 0 cells for refinement out of 4846.
Selected 0 split points out of a possible 152.
Time = 3.6e-05

absorbed power: 53.548905
DILUPBiCGStab:  Solving for T, Initial residual = 0.00033935977, Final residual = 1.9878156e-17, No Iterations 4
Thermo: iteration 0 residual: 0.060444913
DILUPBiCGStab:  Solving for T, Initial residual = 1.9634955e-06, Final residual = 6.8621992e-17, No Iterations 3
Thermo: iteration 1 residual: 0.02218082
DILUPBiCGStab:  Solving for T, Initial residual = 1.2815006e-16, Final residual = 3.6513153e-18, No Iterations 1
Thermo: iteration 2 residual: 2.1760371e-13
ExecutionTime = 0.243035 s  ClockTime = 0 s

Courant Number mean: 0 max: 0
deltaT = 1e-06
Selected 4 cells for refinement out of 4846.
Refined from 4846 to 4874 cells.
Selected 0 split points out of a possible 156.
Time = 3.7e-05

absorbed power: 53.565477
DILUPBiCGStab:  Solving for T, Initial residual = 0.00033023054, Final residual = 3.479345e-16, No Iterations 4
Thermo: iteration 0 residual: 0.059695853
DILUPBiCGStab:  Solving for T, Initial residual = 4.8977325e-16, Final residual = 6.4229523e-18, No Iterations 1
Thermo: iteration 1 residual: 2.7722269e-13
ExecutionTime = 0.252549 s  ClockTime = 0 s

Courant Number mean: 0 max: 0
deltaT = 1e-06
Selected 0 cells for refinement out of 4874.
Selected 0 split points out of a possible 156.
Time = 3.8e-05

absorbed power: 53.565845
DILUPBiCGStab:  Solving for T, Initial residual = 0.00032014152, Final residual = 3.6731066e-16, No Iterations 4
Thermo: iteration 0 residual: 0.059449328
DILUPBiCGStab:  Solving for T, Initial residual = 1.6689682e-07, Final residual = 3.4794217e-16, No Iterations 3
Thermo: iteration 1 residual: 0.0020829328
DILUPBiCGStab:  Solving for T, Initial residual = 4.0384939e-16, Final residual = 1.2185487e-17, No Iterations 1
Thermo: iteration 2 residual: 2.5224267e-13
ExecutionTime = 0.25414 s  ClockTime = 0 s

Courant Number mean: 0 max: 0
deltaT = 1e-06
Selected 0 cells for refinement out of 4874.
Selected 0 split points out of a possible 156.
Time = 3.9e-05

absorbed power: 53.566047
DILUPBiCGStab:  Solving for T, Initial residual = 0.00031059683, Final residual = 3.7844646e-16, No Iterations 4
Thermo: iteration 0 residual: 0.059210157
DILUPBiCGStab:  Solving for T, Initial residual = 2.4420646e-06, Final residual = 1.7370906e-16, No Iterations 3
Thermo: iteration 1 residual: 0.017889237
DILUPBiCGStab:  Solving for T, Initial residual = 2.2960183e-16, Final residual = 6.133097e-18, No Iterations 1
Thermo: iteration 2 residual: 2.6312286e-13
ExecutionTime = 0.255678 s  ClockTime = 0 s

Courant Number mean: 0 max: 0
deltaT = 1e-06
Selected 6 cells for refinement out of 4874.
Refined from 4874 to 4916 cells.
Selected 0 split points out of a possible 162.
Time = 4e-05

absorbed power: 53.579497
DILUPBiCGStab:  Solving for T, Initial residual = 0.00030399425, Final residual = 3.6712412e-16, No Iterations 4
Thermo: iteration 0 residual: 0.058929251
DILUPBiCGStab:  Solving for T, Initial residual = 4.9974419e-16, Final residual = 7.6400837e-18, No Iterations 1
Thermo: iteration 1 residual: 2.902123e-13
ExecutionTime = 0.264794 s  ClockTime = 0 s

Courant Number mean: 0 max: 0
deltaT = 1e-06
Selected 0 cells for refinement out of 4916.
Selected 0 split points out of a possible 162.
Time = 4.1e-05

absorbed power: 53.579757
DILUPBiCGStab:  Solving for T, Initial residual = 0.0002956286, Final residual = 3.8780566e-16, No Iterations 4
Thermo: iteration 0 residual: 0.058636389
DILUPBiCGStab:  Solving for T, Initial residual = 1.2767279e-06, Final residual = 5.3430391e-17, No Iterations 3
Thermo: iteration 1 residual: 0.016398618
DILUPBiCGStab:  Solving for T, Initial residual = 1.1181714e-16, Final residual = 2.0500329e-18, No Iterations 1
Thermo: iteration 2 residual: 2.7089442e-14
ExecutionTime = 0.266454 s  ClockTime = 0 s

Courant Number mean: 0 max: 0
deltaT = 1e-06
Selected 0 cells for refinement out of 4916.
Selected 2 split points out of a possible 162.
Unrefined from 4916 to 4902 cells.
Time = 4.2e-05

absorbed power: 53.570367
DILUPBiCGStab:  Solving for T, Initial residual = 0.00028892952, Final residual = 4.1149152e-16, No Iterations 4
Thermo: iteration 0 residual: 0.058468793
DILUPBiCGStab:  Solving for T, Initial residual = 1.5625287e-06, Final residual = 2.8074912e-16, No Iterations 3
Thermo: iteration 1 residual: 0.020468251
DILUPBiCGStab:  Solving for T, Initial residual = 3.3203789e-16, Final residual = 1.22516e-17, No Iterations 1
Thermo: iteration 2 residual: 3.4539038e-13
ExecutionTime = 0.276315 s  ClockTime = 0 s

Courant Number mean: 0 max: 0
deltaT = 1e-06
Selected 0 cells for refinement out of 4902.
Selected 2 split points out of a possible 160.
Unrefined from 4902 to 4888 cells.
Time = 4.3e-05

absorbed power: 53.567821
DILUPBiCGStab:  Solving for T, Initial residual = 0.82219268, Final residual = 2.9256532e-17, No Iterations 1
Thermo: iteration 0 residual: 0.059403944
DILUPBiCGStab:  Solving for T, Initial residual = 0.00031519459, Final residual = 9.038716e-17, No Iterations 3
Thermo: iteration 1 residual: 0.0061660548
DILUPBiCGStab:  Solving for T, Initial residual = 0.00020021355, Final residual = 8.1332459e-17, No Iterations 2
Thermo: iteration 2 residual: 5.0423887e-11
ExecutionTime = 0.286076 s  ClockTime = 0 s

Courant Number mean: 0 max: 0
deltaT = 1e-06
Selected 2 cells for refinement out of 4888.
Refined from 4888 to 4902 cells.
Selected 0 split points out of a possible 160.
Time = 4.4e-05

absorbed power: 53.578202
DILUPBiCGStab:  Solving for T, Initial residual = 0.00027631237, Final residual = 4.5830345e-16, No Iterations 4
Thermo: iteration 0 residual: 0.05913028
DILUPBiCGStab:  Solving for T, Initial residual = 5.738724e-16, Final residual = 7.3031148e-18, No Iterations 1
Thermo: iteration 1 residual: 2.479128e-13
ExecutionTime = 0.295316 s  ClockTime = 0 s

Courant Number mean: 0 max: 0
deltaT = 1e-06
Selected 0 cells for refinement out of 4902.
Selected 0 split points out of a possible 160.
Time = 4.5e-05

absorbed power: 53.5785
DILUPBiCGStab:  Solving for T, Initial residual = 0.00026958042, Final residual = 4.6247186e-16, No Iterations 4
Thermo: iteration 0 residual: 0.059054406
DILUPBiCGStab:  Solving for T, Initial residual = 5.9700176e-16, Final residual = 7.5631543e-18, No Iterations 1
Thermo: iteration 1 residual: 2.7283731e-13
ExecutionTime = 0.29682 s  ClockTime = 0 s

Courant Number mean: 0 max: 0
deltaT = 1e-06
Selected 0 cells for refinement out of 4902.
Selected 0 split points out of a possible 160.
Time = 4.6e-05

absorbed power: 53.578636
DILUPBiCGStab:  Solving for T, Initial residual = 0.00026318488, Final residual = 4.6692947e-16, No Iterations 4
Thermo: iteration 0 residual: 0.058987372
DILUPBiCGStab:  Solving for T, Initial residual = 9.5789074e-07, Final residual = 1.7354462e-16, No Iterations 3
Thermo: iteration 1 residual: 0.013589399
DILUPBiCGStab:  Solving for T, Initial residual = 2.3718433e-16, Final residual = 7.3919087e-18, No Iterations 1
Thermo: iteration 2 residual: 2.2415403e-13
ExecutionTime = 0.298432 s  ClockTime = 0 s

Courant Number mean: 0 max: 0
deltaT = 1e-06
Selected 0 cells for refinement out of 4902.
Selected 0 split points out of a possible 160.
Time = 4.7e-05

absorbed power: 53.578609
DILUPBiCGStab:  Solving for T, Initial residual = 0.0002570353, Final residual = 4.5777609e-16, No Iterations 4
Thermo: iteration 0 residual: 0.058903077
DILUPBiCGStab:  Solving for T, Initial residual = 2.8708982e-06, Final residual = 2.0469417e-16, No Iterations 3
Thermo: iteration 1 residual: 0.035833737
DILUPBiCGStab:  Solving for T, Initial residual = 2.519917e-16, Final residual = 8.2212567e-18, No Iterations 1
Thermo: iteration 2 residual: 1.2778667e-13
ExecutionTime = 0.30009 s  ClockTime = 0 s

Courant Number mean: 0 max: 0
deltaT = 1e-06
Selected 4 cells for refinement out of 4902.
Refined from 4902 to 4930 cells.
Selected 8 split points out of a possible 162.
Unrefined from 4930 to 4874 cells.
Time = 4.8e-05

absorbed power: 53.568087
DILUPBiCGStab:  Solving for T, Initial residual = 0.99564914, Final residual = 2.0528516e-16, No Iterations 1
Thermo: iteration 0 residual: 0.057950087
DILUPBiCGStab:  Solving for T, Initial residual = 0.0052717584, Final residual = 4.5034584e-16, No Iterations 3
Thermo: iteration 1 residual: 0.0015576512
DILUPBiCGStab:  Solving for T, Initial residual = 0.0034511333, Final residual = 1.7181751e-16, No Iterations 3
Thermo: iteration 2 residual: 1.041221e-05
DILUPBiCGStab:  Solving for T, Initial residual = 2.3671494e-16, Final residual = 6.0344562e-18, No Iterations 1
Thermo: iteration 3 residual: 7.9047879e-14
ExecutionTime = 0.317603 s  ClockTime = 0 s

Courant Number mean: 0 max: 0
deltaT = 1e-06
Selected 0 cells for refinement out of 4874.
Selected 0 split points out of a possible 154.
Time = 4.9e-05

absorbed power: 53.569524
DILUPBiCGStab:  Solving for T, Initial residual = 0.00024686475, Final residual = 5.3756197e-16, No Iterations 4
Thermo: iteration 0 residual: 0.059565155
DILUPBiCGStab:  Solving for T, Initial residual = 6.4739489e-16, Final residual = 9.9898088e-18, No Iterations 1
Thermo: iteration 1 residual: 4.5799475e-13
ExecutionTime = 0.319117 s  ClockTime = 0 s

Courant Number mean: 0 max: 0
deltaT = 1e-06
Selected 0 cells for refinement out of 4874.
Selected 0 split points out of a possible 154.
Time = 5e-05

absorbed power: 53.570759
DILUPBiCGStab:  Solving for T, Initial residual = 0.00024160283, Final residual = 5.4419798e-16, No Iterations 4
Thermo: iteration 0 residual: 0.060177055
DILUPBiCGStab:  Solving for T, Initial residual = 6.6789047e-16, Final residual = 1.0259548e-17, No Iterations 1
Thermo: iteration 1 residual: 4.9479865e-13
ExecutionTime = 0.320612 s  ClockTime = 0 s

Courant Number mean: 0 max: 0
deltaT = 1e-06
Selected 0 cells for refinement out of 4874.
Selected 0 split points out of a possible 154.
Redistributing mesh with imbalance 0.13382594
refinementHistory add : found refinementHistory
refinementHistory add : adding refinementHistory 
refinementHistory apply : found refinementHistory
refinementHistory apply : adding refinementHistory 
Time = 5.1e-05

absorbed power: 53.571793
DILUPBiCGStab:  Solving for T, Initial residual = 0.000236583, Final residual = 6.6062371e-17, No Iterations 4
Thermo: iteration 0 residual: 0.060635337
DILUPBiCGStab:  Solving for T, Initial residual = 2.0167878e-16, Final residual = 2.989292e-18, No Iterations 1
Thermo: iteration 1 residual: 7.5772721e-15
ExecutionTime = 0.336282 s  ClockTime = 0 s

Courant Number mean: 0 max: 0
deltaT = 1e-06
Selected 0 cells for refinement out of 4874.
Selected 0 split points out of a possible 154.
Time = 5.2e-05

absorbed power: 53.572629
DILUPBiCGStab:  Solving for T, Initial residual = 0.0002317805, Final residual = 7.1442088e-17, No Iterations 4
Thermo: iteration 0 residual: 0.060961752
DILUPBiCGStab:  Solving for T, Initial residual = 5.5726626e-07, Final residual = 1.631901e-16, No Iterations 2
Thermo: iteration 1 residual: 0.00036318365
DILUPBiCGStab:  Solving for T, Initial residual = 2.2315159e-16, Final residual = 3.4596577e-18, No Iterations 1
Thermo: iteration 2 residual: 6.2783112e-14
ExecutionTime = 0.337915 s  ClockTime = 0 s

Courant Number mean: 0 max: 0
deltaT = 1e-06
Selected 0 cells for refinement out of 4874.
Selected 2 split points out of a possible 154.
Unrefined from 4874 to 4860 cells.
Time = 5.3e-05

absorbed power: 53.563838
DILUPBiCGStab:  Solving for T, Initial residual = 0.00022704193, Final residual = 7.4432601e-17, No Iterations 4
Thermo: iteration 0 residual: 0.058632702
DILUPBiCGStab:  Solving for T, Initial residual = 3.9486031e-06, Final residual = 2.9073381e-17, No Iterations 3
Thermo: iteration 1 residual: 0.021132908
DILUPBiCGStab:  Solving for T, Initial residual = 6.6010281e-17, Final residual = 1.1797912e-18, No Iterations 1
Thermo: iteration 2 residual: 5.6288307e-14
ExecutionTime = 0.347599 s  ClockTime = 0 s

Courant Number mean: 0 max: 0
deltaT = 1e-06
Selected 2 cells for refinement out of 4860.
Refined from 4860 to 4874 cells.
Selected 0 split points out of a possible 154.
Time = 5.4e-05

absorbed power: 53.567641
DILUPBiCGStab:  Solving for T, Initial residual = 0.0002232345, Final residual = 1.3188124e-16, No Iterations 4
Thermo: iteration 0 residual: 0.05940292
DILUPBiCGStab:  Solving for T, Initial residual = 1.2021374e-06, Final residual = 1.0509618e-16, No Iterations 3
Thermo: iteration 1 residual: 0.019456552
DILUPBiCGStab:  Solving for T, Initial residual = 1.3805244e-16, Final residual = 3.1513376e-18, No Iterations 1
Thermo: iteration 2 residual: 8.8817842e-14
ExecutionTime = 0.356661 s  ClockTime = 0 s

Courant Number mean: 0 max: 0
deltaT = 1e-06
Selected 2 cells for refinement out of 4874.
Refined from 4874 to 4888 cells.
Selected 0 split points out of a possible 156.
Time = 5.5e-05

absorbed power: 53.578983
DILUPBiCGStab:  Solving for T, Initial residual = 0.000219561, Final residual = 1.514799e-16, No Iterations 4
Thermo: iteration 0 residual: 0.060320814
DILUPBiCGStab:  Solving for T, Initial residual = 2.4442961e-16, Final residual = 4.1992632e-18, No Iterations 1
Thermo: iteration 1 residual: 4.7628568e-14
ExecutionTime = 0.365809 s  ClockTime = 0 s

Courant Number mean: 0 max: 0
deltaT = 1e-06
Selected 0 cells for refinement out of 4888.
Selected 0 split points out of a possible 156.
Time = 5.6e-05

absorbed power: 53.579765
DILUPBiCGStab:  Solving for T, Initial residual = 0.0002154656, Final residual = 1.487652e-16, No Iterations 4
Thermo: iteration 0 residual: 0.061099731
DILUPBiCGStab:  Solving for T, Initial residual = 1.1942803e-06, Final residual = 4.0316369e-17, No Iterations 3
Thermo: iteration 1 residual: 0.015829786
DILUPBiCGStab:  Solving for T, Initial residual = 7.4643076e-17, Final residual = 1.4948225e-18, No Iterations 1
Thermo: iteration 2 residual: 3.3528735e-14
ExecutionTime = 0.367455 s  ClockTime = 0 s

Courant Number mean: 0 max: 0
deltaT = 1e-06
Selected 0 cells for refinement out of 4888.
Selected 4 split points out of a possible 156.
Unrefined from 4888 to 4860 cells.
Time = 5.7e-05

absorbed power: 53.56827
DILUPBiCGStab:  Solving for T, Initial residual = 1, Final residual = 8.3697947e-17, No Iterations 1
Thermo: iteration 0 residual: 0.061696409
DILUPBiCGStab:  Solving for T, Initial residual = 0.00027208316, Final residual = 9.8215457e-16, No Iterations 3
Thermo: iteration 1 residual: 0.0080447133
DILUPBiCGStab:  Solving for T, Initial residual = 0.00017283442, Final residual = 4.7370151e-18, No Iterations 4
Thermo: iteration 2 residual: 1.214977e-10
ExecutionTime = 0.377123 s  ClockTime = 0 s

Courant Number mean: 0 max: 0
deltaT = 1e-06
Selected 0 cells for refinement out of 4860.
Selected 0 split points out of a possible 154.
Time = 5.8e-05

absorbed power: 53.569044
DILUPBiCGStab:  Solving for T, Initial residual = 0.00020782546, Final residual = 2.6285186e-16, No Iterations 4
Thermo: iteration 0 residual: 0.062189156
DILUPBiCGStab:  Solving for T, Initial residual = 7.7457378e-07, Final residual = 7.5828911e-17, No Iterations 3
Thermo: iteration 1 residual: 0.00077184683
DILUPBiCGStab:  Solving for T, Initial residual = 1.0540114e-16, Final residual = 2.2986398e-18, No Iterations 1
Thermo: iteration 2 residual: 1.2889689e-13
ExecutionTime = 0.378692 s  ClockTime = 0 s

Courant Number mean: 0 max: 0
deltaT = 1e-06
Selected 0 cells for refinement out of 4860.
Selected 0 split points out of a possible 154.
Time = 5.9e-05

absorbed power: 53.569635
DILUPBiCGStab:  Solving for T, Initial residual = 0.000204241, Final residual = 5.0675788e-17, No Iterations 4
Thermo: iteration 0 residual: 0.06258788
DILUPBiCGStab:  Solving for T, Initial residual = 9.1512026e-08, Final residual = 2.2851597e-16, No Iterations 2
Thermo: iteration 1 residual: 0.0016295397
DILUPBiCGStab:  Solving for T, Initial residual = 2.5669195e-16, Final residual = 5.1228055e-18, No Iterations 1
Thermo: iteration 2 residual: 1.5920598e-13
ExecutionTime = 0.380243 s  ClockTime = 0 s

Courant Number mean: 0 max: 0
deltaT = 1e-06
Selected 0 cells for refinement out of 4860.
Selected 2 split points out of a possible 154.
Unrefined from 4860 to 4846 cells.
Time = 6e-05

absorbed power: 53.567066
DILUPBiCGStab:  Solving for T, Initial residual = 0.00020148971, Final residual = 4.6664901e-17, No Iterations 4
Thermo: iteration 0 residual: 0.062866877
DILUPBiCGStab:  Solving for T, Initial residual = 9.5139409e-07, Final residual = 5.4734172e-17, No Iterations 3
Thermo: iteration 1 residual: 0.012748643
DILUPBiCGStab:  Solving for T, Initial residual = 8.1895667e-17, Final residual = 1.7557083e-18, No Iterations 1
Thermo: iteration 2 residual: 1.050271e-13
ExecutionTime = 0.39031 s  ClockTime = 0 s

Courant Number mean: 0 max: 0
deltaT = 1e-06
Selected 0 cells for refinement out of 4846.
Selected 0 split points out of a possible 154.
Time = 6.1e-05

absorbed power: 53.567368
DILUPBiCGStab:  Solving for T, Initial residual = 0.00019808443, Final residual = 4.5421727e-17, No Iterations 4
Thermo: iteration 0 residual: 0.056774154
DILUPBiCGStab:  Solving for T, Initial residual = 1.039565e-06, Final residual = 1.4715658e-17, No Iterations 3
Thermo: iteration 1 residual: 0.00050839839
DILUPBiCGStab:  Solving for T, Initial residual = 4.6064133e-17, Final residual = 5.9884517e-19, No Iterations 1
Thermo: iteration 2 residual: 4.9793503e-14
ExecutionTime = 0.39186 s  ClockTime = 0 s

Courant Number mean: 0 max: 0
deltaT = 1e-06
Selected 0 cells for refinement out of 4846.
Selected 0 split points out of a possible 154.
Time = 6.2e-05

absorbed power: 53.567488
DILUPBiCGStab:  Solving for T, Initial residual = 0.00019503976, Final residual = 6.9675471e-17, No Iterations 4
Thermo: iteration 0 residual: 0.058630013
DILUPBiCGStab:  Solving for T, Initial residual = 1.3437992e-07, Final residual = 3.8590256e-16, No Iterations 3
Thermo: iteration 1 residual: 0.0024981466
DILUPBiCGStab:  Solving for T, Initial residual = 4.1246551e-16, Final residual = 1.1407801e-17, No Iterations 1
Thermo: iteration 2 residual: 5.5222493e-13
ExecutionTime = 0.393481 s  ClockTime = 0 s

Courant Number mean: 0 max: 0
deltaT = 1e-06
Selected 0 cells for refinement out of 4846.
Selected 0 split points out of a possible 154.
Time = 6.3e-05

absorbed power: 53.567426
DILUPBiCGStab:  Solving for T, Initial residual = 0.00019197813, Final residual = 4.9831532e-17, No Iterations 4
Thermo: iteration 0 residual: 0.059703123
DILUPBiCGStab:  Solving for T, Initial residual = 3.9779379e-08, Final residual = 4.96007e-18, No Iterations 2
Thermo: iteration 1 residual: 0.00083426754
DILUPBiCGStab:  Solving for T, Initial residual = 3.1903684e-17, Final residual = 6.8099516e-20, No Iterations 1
Thermo: iteration 2 residual: 8.6597396e-15
ExecutionTime = 0.395101 s  ClockTime = 0 s

Courant Number mean: 0 max: 0
deltaT = 1e-06
Selected 2 cells for refinement out of 4846.
Refined from 4846 to 4860 cells.
Selected 2 split points out of a possible 156.
Unrefined from 4860 to 4846 cells.
Time = 6.4e-05

absorbed power: 53.567368
DILUPBiCGStab:  Solving for T, Initial residual = 0.00018986152, Final residual = 4.001022e-17, No Iterations 4
Thermo: iteration 0 residual: 0.060596016
DILUPBiCGStab:  Solving for T, Initial residual = 8.6880793e-07, Final residual = 7.2242256e-16, No Iterations 3
Thermo: iteration 1 residual: 0.016196781
DILUPBiCGStab:  Solving for T, Initial residual = 7.5103189e-16, Final residual = 2.4120987e-17, No Iterations 1
Thermo: iteration 2 residual: 5.4678484e-13
ExecutionTime = 0.412317 s  ClockTime = 0 s

Courant Number mean: 0 max: 0
deltaT = 1e-06
Selected 0 cells for refinement out of 4846.
Selected 0 split points out of a possible 154.
Time = 6.5e-05

absorbed power: 53.567066
DILUPBiCGStab:  Solving for T, Initial residual = 0.00018700625, Final residual = 3.4352976e-17, No Iterations 4
Thermo: iteration 0 residual: 0.06206345
DILUPBiCGStab:  Solving for T, Initial residual = 2.8878893e-06, Final residual = 4.9705603e-17, No Iterations 3
Thermo: iteration 1 residual: 0.03606509
DILUPBiCGStab:  Solving for T, Initial residual = 7.8124123e-17, Final residual = 1.5938945e-18, No Iterations 1
Thermo: iteration 2 residual: 6.4948047e-14
ExecutionTime = 0.413889 s  ClockTime = 0 s

Courant Number mean: 0 max: 0
deltaT = 1e-06
Selected 0 cells for refinement out of 4846.
Selected 0 split points out of a possible 154.
Time = 6.6e-05

absorbed power: 53.566582
DILUPBiCGStab:  Solving for T, Initial residual = 0.00018425196, Final residual = 2.9239358e-17, No Iterations 4
Thermo: iteration 0 residual: 0.061854766
DILUPBiCGStab:  Solving for T, Initial residual = 1.8317464e-06, Final residual = 1.3592178e-16, No Iterations 3
Thermo: iteration 1 residual: 0.00095711661
DILUPBiCGStab:  Solving for T, Initial residual = 1.6174932e-16, Final residual = 3.6805802e-18, No Iterations 1
Thermo: iteration 2 residual: 2.6201263e-13
ExecutionTime = 0.415509 s  ClockTime = 0 s

Courant Number mean: 0 max: 0
deltaT = 1e-06
Selected 0 cells for refinement out of 4846.
Selected 0 split points out of a possible 154.
Time = 6.7e-05

absorbed power: 53.565914
DILUPBiCGStab:  Solving for T, Initial residual = 0.00018174549, Final residual = 5.3135934e-17, No Iterations 4
Thermo: iteration 0 residual: 0.062422745
DILUPBiCGStab:  Solving for T, Initial residual = 1.3366277e-16, Final residual = 6.3762479e-19, No Iterations 1
Thermo: iteration 1 residual: 2.0539126e-14
ExecutionTime = 0.416964 s  ClockTime = 0 s

Courant Number mean: 0 max: 0
deltaT = 1e-06
Selected 2 cells for refinement out of 4846.
Refined from 4846 to 4860 cells.
Selected 0 split points out of a possible 154.
Time = 6.8e-05

absorbed power: 53.56827
DILUPBiCGStab:  Solving for T, Initial residual = 0.00017969396, Final residual = 5.1853073e-17, No Iterations 4
Thermo: iteration 0 residual: 0.062871026
DILUPBiCGStab:  Solving for T, Initial residual = 1.7814369e-06, Final residual = 7.3175222e-17, No Iterations 3
Thermo: iteration 1 residual: 0.020934803
DILUPBiCGStab:  Solving for T, Initial residual = 9.9355638e-17, Final residual = 2.3800993e-18, No Iterations 1
Thermo: iteration 2 residual: 9.4146912e-14
ExecutionTime = 0.426228 s  ClockTime = 0 s

Courant Number mean: 0 max: 0
deltaT = 1e-06
Selected 0 cells for refinement out of 4860.
Selected 0 split points out of a possible 154.
Time = 6.9e-05

absorbed power: 53.56731
DILUPBiCGStab:  Solving for T, Initial residual = 0.00017717389, Final residual = 4.6832705e-17, No Iterations 4
Thermo: iteration 0 residual: 0.063214251
DILUPBiCGStab:  Solving for T, Initial residual = 4.6868577e-07, Final residual = 8.1449545e-17, No Iterations 3
Thermo: iteration 1 residual: 0.00038458352
DILUPBiCGStab:  Solving for T, Initial residual = 1.0573204e-16, Final residual = 2.5697578e-18, No Iterations 1
Thermo: iteration 2 residual: 1.1801671e-13
ExecutionTime = 0.427825 s  ClockTime = 0 s

Courant Number mean: 0 max: 0
deltaT = 1e-06
Selected 0 cells for refinement out of 4860.
Selected 0 split points out of a possible 154.
Time = 7e-05

absorbed power: 53.566164
DILUPBiCGStab:  Solving for T, Initial residual = 0.00017484368, Final residual = 5.2019298e-17, No Iterations 4
Thermo: iteration 0 residual: 0.063483274
DILUPBiCGStab:  Solving for T, Initial residual = 1.5181439e-06, Final residual = 8.4820107e-17, No Iterations 3
Thermo: iteration 1 residual: 0.020899371
DILUPBiCGStab:  Solving for T, Initial residual = 1.1285686e-16, Final residual = 2.7495207e-18, No Iterations 1
Thermo: iteration 2 residual: 9.6367359e-14
ExecutionTime = 0.429463 s  ClockTime = 0 s

Courant Number mean: 0 max: 0
deltaT = 1e-06
Selected 4 cells for refinement out of 4860.
Refined from 4860 to 4888 cells.
Selected 0 split points out of a possible 156.
Time = 7.1e-05

absorbed power: 53.578021
DILUPBiCGStab:  Solving for T, Initial residual = 0.00017351777, Final residual = 4.0996815e-17, No Iterations 4
Thermo: iteration 0 residual: 0.058157181
DILUPBiCGStab:  Solving for T, Initial residual = 5.9861991e-07, Final residual = 6.8689052e-16, No Iterations 3
Thermo: iteration 1 residual: 0.00051985559
DILUPBiCGStab:  Solving for T, Initial residual = 7.1209371e-16, Final residual = 2.0810567e-17, No Iterations 1
Thermo: iteration 2 residual: 8.0013773e-13
ExecutionTime = 0.439125 s  ClockTime = 0 s

Courant Number mean: 0 max: 0
deltaT = 1e-06
Selected 0 cells for refinement out of 4888.
Selected 0 split points out of a possible 156.
Time = 7.2e-05

absorbed power: 53.576876
DILUPBiCGStab:  Solving for T, Initial residual = 0.00017127806, Final residual = 3.406581e-17, No Iterations 4
Thermo: iteration 0 residual: 0.059827497
DILUPBiCGStab:  Solving for T, Initial residual = 1.0964895e-16, Final residual = 1.2549046e-18, No Iterations 1
Thermo: iteration 1 residual: 1.8429702e-14
ExecutionTime = 0.440697 s  ClockTime = 0 s

Courant Number mean: 0 max: 0
deltaT = 1e-06
Selected 0 cells for refinement out of 4888.
Selected 2 split points out of a possible 156.
Unrefined from 4888 to 4874 cells.
Time = 7.3e-05

absorbed power: 53.565957
DILUPBiCGStab:  Solving for T, Initial residual = 0.00016973906, Final residual = 3.2262507e-17, No Iterations 4
Thermo: iteration 0 residual: 0.06076886
DILUPBiCGStab:  Solving for T, Initial residual = 6.1396046e-07, Final residual = 7.0215208e-16, No Iterations 3
Thermo: iteration 1 residual: 0.013000866
DILUPBiCGStab:  Solving for T, Initial residual = 7.2754551e-16, Final residual = 2.4148597e-17, No Iterations 1
Thermo: iteration 2 residual: 8.4668383e-13
ExecutionTime = 0.45073 s  ClockTime = 0 s

Courant Number mean: 0 max: 0
deltaT = 1e-06
Selected 0 cells for refinement out of 4874.
Selected 2 split points out of a possible 154.
Unrefined from 4874 to 4860 cells.
Time = 7.4e-05

absorbed power: 53.561929
DILUPBiCGStab:  Solving for T, Initial residual = 0.00016861867, Final residual = 3.102367e-17, No Iterations 4
Thermo: iteration 0 residual: 0.061503325
DILUPBiCGStab:  Solving for T, Initial residual = 1.3466209e-07, Final residual = 1.9094801e-16, No Iterations 3
Thermo: iteration 1 residual: 0.0016863419
DILUPBiCGStab:  Solving for T, Initial residual = 2.1373544e-16, Final residual = 5.7962175e-18, No Iterations 1
Thermo: iteration 2 residual: 2.2196134e-13
ExecutionTime = 0.460451 s  ClockTime = 0 s

Courant Number mean: 0 max: 0
deltaT = 1e-06
Selected 2 cells for refinement out of 4860.
Refined from 4860 to 4874 cells.
Selected 0 split points out of a possible 154.
Time = 7.5e-05

absorbed power: 53.570759
DILUPBiCGStab:  Solving for T, Initial residual = 0.00016697531, Final residual = 3.0399401e-17, No Iterations 4
Thermo: iteration 0 residual: 0.062057873
DILUPBiCGStab:  Solving for T, Initial residual = 1.1374015e-06, Final residual = 3.088446e-16, No Iterations 3
Thermo: iteration 1 residual: 0.023971881
DILUPBiCGStab:  Solving for T, Initial residual = 3.3323988e-16, Final residual = 8.9544521e-18, No Iterations 1
Thermo: iteration 2 residual: 8.9761532e-13
ExecutionTime = 0.469883 s  ClockTime = 0 s

Courant Number mean: 0 max: 0
deltaT = 1e-06
Selected 0 cells for refinement out of 4874.
Selected 0 split points out of a possible 154.
Time = 7.6e-05

absorbed power: 53.569524
DILUPBiCGStab:  Solving for T, Initial residual = 0.00016488648, Final residual = 3.0871072e-17, No Iterations 4
Thermo: iteration 0 residual: 0.060557434
DILUPBiCGStab:  Solving for T, Initial residual = 2.5300196e-06, Final residual = 1.0688079e-16, No Iterations 3
Thermo: iteration 1 residual: 0.018919168
DILUPBiCGStab:  Solving for T, Initial residual = 1.2926851e-16, Final residual = 3.589479e-18, No Iterations 1
Thermo: iteration 2 residual: 1.2234658e-13
ExecutionTime = 0.472005 s  ClockTime = 0 s

Courant Number mean: 0 max: 0
deltaT = 1e-06
Selected 0 cells for refinement out of 4874.
Selected 0 split points out of a possible 154.
Time = 7.7e-05

absorbed power: 53.568087
DILUPBiCGStab:  Solving for T, Initial residual = 0.00016293175, Final residual = 5.4854147e-17, No Iterations 4
Thermo: iteration 0 residual: 0.061952014
DILUPBiCGStab:  Solving for T, Initial residual = 1.2608968e-16, Final residual = 5.7571027e-19, No Iterations 1
Thermo: iteration 1 residual: 2.1649349e-14
ExecutionTime = 0.47359 s  ClockTime = 0 s

Courant Number mean: 0 max: 0
deltaT = 1e-06
Selected 0 cells for refinement out of 4874.
Selected 0 split points out of a possible 154.
Time = 7.8e-05

absorbed power: 53.566444
DILUPBiCGStab:  Solving for T, Initial residual = 0.00016098395, Final residual = 5.507502e-17, No Iterations 4
Thermo: iteration 0 residual: 0.063156474
DILUPBiCGStab:  Solving for T, Initial residual = 2.4120985e-06, Final residual = 5.3216169e-16, No Iterations 3
Thermo: iteration 1 residual: 0.033369807
DILUPBiCGStab:  Solving for T, Initial residual = 5.5776404e-16, Final residual = 1.7772804e-17, No Iterations 1
Thermo: iteration 2 residual: 6.4526162e-13
ExecutionTime = 0.475377 s  ClockTime = 0 s

Courant Number mean: 0 max: 0
deltaT = 1e-06
Selected 0 cells for refinement out of 4874.
Selected 0 split points out of a possible 154.
Time = 7.9e-05

absorbed power: 53.564592
DILUPBiCGStab:  Solving for T, Initial residual = 0.00015904698, Final residual = 5.4687361e-17, No Iterations 4
Thermo: iteration 0 residual: 0.062880526
DILUPBiCGStab:  Solving for T, Initial residual = 1.2445443e-07, Final residual = 6.4975888e-17, No Iterations 3
Thermo: iteration 1 residual: 0.0028067801
DILUPBiCGStab:  Solving for T, Initial residual = 8.8657895e-17, Final residual = 2.0997108e-18, No Iterations 1
Thermo: iteration 2 residual: 4.9849014e-14
ExecutionTime = 0.47707 s  ClockTime = 0 s

Courant Number mean: 0 max: 0
deltaT = 1e-06
Selected 8 cells for refinement out of 4874.
Refined from 4874 to 4930 cells.
Selected 4 split points out of a possible 162.
Unrefined from 4930 to 4902 cells.
Time = 8e-05

absorbed power: 53.5785
DILUPBiCGStab:  Solving for T, Initial residual = 0.68680475, Final residual = 1.8085982e-17, No Iterations 1
Thermo: iteration 0 residual: 0.063239757
DILUPBiCGStab:  Solving for T, Initial residual = 0.00016886715, Final residual = 2.2135702e-16, No Iterations 3
Thermo: iteration 1 residual: 6.242446e-06
DILUPBiCGStab:  Solving for T, Initial residual = 0.00010691919, Final residual = 9.1002849e-18, No Iterations 3
Thermo: iteration 2 residual: 2.926269e-06
DILUPBiCGStab:  Solving for T, Initial residual = 3.5317747e-17, Final residual = 2.3267896e-19, No Iterations 1
Thermo: iteration 3 residual: 6.5503158e-15
ExecutionTime = 0.495802 s  ClockTime = 0 s

Courant Number mean: 0 max: 0
deltaT = 1e-06
Selected 0 cells for refinement out of 4902.
Selected 0 split points out of a possible 160.
Redistributing mesh with imbalance 0.10693878
refinementHistory add : found refinementHistory
refinementHistory add : adding refinementHistory 
refinementHistory apply : found refinementHistory
refinementHistory apply : adding refinementHistory 
Time = 8.1e-05

absorbed power: 53.578202
DILUPBiCGStab:  Solving for T, Initial residual = 0.00015918867, Final residual = 3.7598522e-17, No Iterations 4
Thermo: iteration 0 residual: 0.063535891
DILUPBiCGStab:  Solving for T, Initial residual = 1.0735657e-06, Final residual = 5.3556649e-17, No Iterations 3
Thermo: iteration 1 residual: 0.01204356
DILUPBiCGStab:  Solving for T, Initial residual = 7.876411e-17, Final residual = 1.7455508e-18, No Iterations 1
Thermo: iteration 2 residual: 5.9507954e-14
ExecutionTime = 0.513252 s  ClockTime = 0 s

Courant Number mean: 0 max: 0
deltaT = 1e-06
Selected 0 cells for refinement out of 4902.
Selected 0 split points out of a possible 160.
Time = 8.2e-05

absorbed power: 53.57774
DILUPBiCGStab:  Solving for T, Initial residual = 0.00015741526, Final residual = 3.7196448e-17, No Iterations 4
Thermo: iteration 0 residual: 0.063754455
DILUPBiCGStab:  Solving for T, Initial residual = 1.0470783e-16, Final residual = 8.9741825e-19, No Iterations 1
Thermo: iteration 1 residual: 3.0309089e-14
ExecutionTime = 0.514776 s  ClockTime = 0 s

Courant Number mean: 0 max: 0
deltaT = 1e-06
Selected 0 cells for refinement out of 4902.
Selected 0 split points out of a possible 160.
Time = 8.3e-05

absorbed power: 53.577114
DILUPBiCGStab:  Solving for T, Initial residual = 0.00015582366, Final residual = 3.6953175e-17, No Iterations 4
Thermo: iteration 0 residual: 0.05881469
DILUPBiCGStab:  Solving for T, Initial residual = 7.4656159e-07, Final residual = 1.7581135e-16, No Iterations 3
Thermo: iteration 1 residual: 0.00072159644
DILUPBiCGStab:  Solving for T, Initial residual = 1.9806382e-16, Final residual = 4.2713471e-18, No Iterations 1
Thermo: iteration 2 residual: 1.6242563e-13
ExecutionTime = 0.516309 s  ClockTime = 0 s

Courant Number mean: 0 max: 0
deltaT = 1e-06
Selected 0 cells for refinement out of 4902.
Selected 2 split points out of a possible 160.
Unrefined from 4902 to 4888 cells.
Time = 8.4e-05

absorbed power: 53.566838
DILUPBiCGStab:  Solving for T, Initial residual = 0.96227393, Final residual = 2.1017079e-17, No Iterations 1
Thermo: iteration 0 residual: 0.060531416
DILUPBiCGStab:  Solving for T, Initial residual = 0.00019364232, Final residual = 4.9365429e-17, No Iterations 3
Thermo: iteration 1 residual: 8.082144e-05
DILUPBiCGStab:  Solving for T, Initial residual = 0.00012267832, Final residual = 2.7914831e-16, No Iterations 3
Thermo: iteration 2 residual: 1.1481637e-07
DILUPBiCGStab:  Solving for T, Initial residual = 3.0243679e-16, Final residual = 6.6865883e-18, No Iterations 1
Thermo: iteration 3 residual: 3.8968828e-14
ExecutionTime = 0.525606 s  ClockTime = 0 s

Courant Number mean: 0 max: 0
deltaT = 1e-06
Selected 2 cells for refinement out of 4888.
Refined from 4888 to 4902 cells.
Selected 0 split points out of a possible 160.
Time = 8.5e-05

absorbed power: 53.569218
DILUPBiCGStab:  Solving for T, Initial residual = 0.00015337385, Final residual = 4.7676033e-17, No Iterations 4
Thermo: iteration 0 residual: 0.061359928
DILUPBiCGStab:  Solving for T, Initial residual = 2.6059632e-08, Final residual = 9.9836782e-18, No Iterations 2
Thermo: iteration 1 residual: 5.8950483e-05
DILUPBiCGStab:  Solving for T, Initial residual = 3.1308104e-17, Final residual = 1.1550117e-19, No Iterations 1
Thermo: iteration 2 residual: 1.0824674e-14
ExecutionTime = 0.533438 s  ClockTime = 0 s

Courant Number mean: 0 max: 0
deltaT = 1e-06
Selected 2 cells for refinement out of 4902.
Refined from 4902 to 4916 cells.
Selected 0 split points out of a possible 162.
Time = 8.6e-05

absorbed power: 53.57908
DILUPBiCGStab:  Solving for T, Initial residual = 0.00015234189, Final residual = 4.4528781e-17, No Iterations 4
Thermo: iteration 0 residual: 0.062016624
DILUPBiCGStab:  Solving for T, Initial residual = 1.0286801e-06, Final residual = 4.9175315e-17, No Iterations 3
Thermo: iteration 1 residual: 0.0062533437
DILUPBiCGStab:  Solving for T, Initial residual = 7.1091962e-17, Final residual = 1.6668079e-18, No Iterations 1
Thermo: iteration 2 residual: 6.0645933e-14
ExecutionTime = 0.541322 s  ClockTime = 0 s

Courant Number mean: 0 max: 0
deltaT = 1e-06
Selected 0 cells for refinement out of 4916.
Selected 0 split points out of a possible 162.
Time = 8.7e-05

absorbed power: 53.578507
DILUPBiCGStab:  Solving for T, Initial residual = 0.0001508704, Final residual = 4.2590743e-17, No Iterations 4
Thermo: iteration 0 residual: 0.057027083
DILUPBiCGStab:  Solving for T, Initial residual = 1.9814797e-07, Final residual = 8.2660168e-16, No Iterations 2
Thermo: iteration 1 residual: 0.00019192238
DILUPBiCGStab:  Solving for T, Initial residual = 8.4649747e-16, Final residual = 2.4185215e-17, No Iterations 1
Thermo: iteration 2 residual: 3.3185676e-12
ExecutionTime = 0.542905 s  ClockTime = 0 s

Courant Number mean: 0 max: 0
deltaT = 1e-06
Selected 0 cells for refinement out of 4916.
Selected 6 split points out of a possible 162.
Unrefined from 4916 to 4874 cells.
Time = 8.8e-05

absorbed power: 53.565477
DILUPBiCGStab:  Solving for T, Initial residual = 0.86810339, Final residual = 9.2712392e-16, No Iterations 1
Thermo: iteration 0 residual: 0.058655714
DILUPBiCGStab:  Solving for T, Initial residual = 0.00035190878, Final residual = 4.0963922e-17, No Iterations 3
Thermo: iteration 1 residual: 0.00098484823
DILUPBiCGStab:  Solving for T, Initial residual = 0.00022293481, Final residual = 2.1221697e-16, No Iterations 3
Thermo: iteration 2 residual: 4.0690191e-07
DILUPBiCGStab:  Solving for T, Initial residual = 2.3919651e-16, Final residual = 4.7016843e-18, No Iterations 1
Thermo: iteration 3 residual: 8.6597396e-15
ExecutionTime = 0.55218 s  ClockTime = 0 s

Courant Number mean: 0 max: 0
deltaT = 1e-06
Selected 0 cells for refinement out of 4874.
Selected 0 split points out of a possible 156.
Time = 8.9e-05

absorbed power: 53.564943
DILUPBiCGStab:  Solving for T, Initial residual = 0.00014830299, Final residual = 3.7699009e-17, No Iterations 4
Thermo: iteration 0 residual: 0.060157519
DILUPBiCGStab:  Solving for T, Initial residual = 5.2824656e-07, Final residual = 1.1313069e-16, No Iterations 2
Thermo: iteration 1 residual: 0.012580702
DILUPBiCGStab:  Solving for T, Initial residual = 1.3433551e-16, Final residual = 2.5964662e-18, No Iterations 1
Thermo: iteration 2 residual: 4.3420822e-13
ExecutionTime = 0.553781 s  ClockTime = 0 s

Courant Number mean: 0 max: 0
deltaT = 1e-06
Selected 0 cells for refinement out of 4874.
Selected 0 split points out of a possible 156.
Time = 9e-05

absorbed power: 53.564241
DILUPBiCGStab:  Solving for T, Initial residual = 0.00014694896, Final residual = 3.6466532e-17, No Iterations 4
Thermo: iteration 0 residual: 0.061486563
DILUPBiCGStab:  Solving for T, Initial residual = 1.5089063e-06, Final residual = 1.7294694e-16, No Iterations 3
Thermo: iteration 1 residual: 0.02082703
DILUPBiCGStab:  Solving for T, Initial residual = 1.9465385e-16, Final residual = 5.1707961e-18, No Iterations 1
Thermo: iteration 2 residual: 9.4202424e-14
ExecutionTime = 0.5554 s  ClockTime = 0 s

Courant Number mean: 0 max: 0
deltaT = 1e-06
Selected 0 cells for refinement out of 4874.
Selected 4 split points out of a possible 156.
Unrefined from 4874 to 4846 cells.
Time = 9.1e-05

absorbed power: 53.548898
DILUPBiCGStab:  Solving for T, Initial residual = 0.00014566129, Final residual = 3.7626014e-17, No Iterations 4
Thermo: iteration 0 residual: 0.062679346
DILUPBiCGStab:  Solving for T, Initial residual = 5.2911199e-07, Final residual = 5.1428001e-17, No Iterations 3
Thermo: iteration 1 residual: 0.013033205
DILUPBiCGStab:  Solving for T, Initial residual = 7.2623097e-17, Final residual = 1.7843289e-18, No Iterations 1
Thermo: iteration 2 residual: 1.3858359e-13
ExecutionTime = 0.564489 s  ClockTime = 0 s

Courant Number mean: 0 max: 0
deltaT = 1e-06
Selected 0 cells for refinement out of 4846.
Selected 0 split points out of a possible 152.
Time = 9.2e-05

absorbed power: 53.548586
DILUPBiCGStab:  Solving for T, Initial residual = 0.00014442216, Final residual = 3.7436359e-17, No Iterations 4
Thermo: iteration 0 residual: 0.063738194
DILUPBiCGStab:  Solving for T, Initial residual = 1.3193016e-06, Final residual = 1.4175583e-16, No Iterations 2
Thermo: iteration 1 residual: 0.031511208
DILUPBiCGStab:  Solving for T, Initial residual = 1.6303934e-16, Final residual = 3.9942684e-18, No Iterations 1
Thermo: iteration 2 residual: 2.7609512e-13
ExecutionTime = 0.566072 s  ClockTime = 0 s

Courant Number mean: 0 max: 0
deltaT = 1e-06
Selected 0 cells for refinement out of 4846.
Selected 0 split points out of a possible 152.
Time = 9.3e-05

absorbed power: 53.548069
DILUPBiCGStab:  Solving for T, Initial residual = 0.00014323061, Final residual = 3.7142614e-17, No Iterations 4
Thermo: iteration 0 residual: 0.063387758
DILUPBiCGStab:  Solving for T, Initial residual = 1.5428937e-07, Final residual = 3.4939272e-17, No Iterations 3
Thermo: iteration 1 residual: 0.00014817577
DILUPBiCGStab:  Solving for T, Initial residual = 5.4764234e-17, Final residual = 1.2683184e-18, No Iterations 1
Thermo: iteration 2 residual: 1.8429702e-14
ExecutionTime = 0.567617 s  ClockTime = 0 s

Courant Number mean: 0 max: 0
deltaT = 1e-06
Selected 0 cells for refinement out of 4846.
Selected 0 split points out of a possible 152.
Time = 9.4e-05

absorbed power: 53.547348
DILUPBiCGStab:  Solving for T, Initial residual = 0.00014212783, Final residual = 4.5891098e-17, No Iterations 4
Thermo: iteration 0 residual: 0.063644926
DILUPBiCGStab:  Solving for T, Initial residual = 1.0748144e-16, Final residual = 9.582126e-19, No Iterations 1
Thermo: iteration 1 residual: 4.2230108e-14
ExecutionTime = 0.569085 s  ClockTime = 0 s

Courant Number mean: 0 max: 0
deltaT = 1e-06
Selected 4 cells for refinement out of 4846.
Refined from 4846 to 4874 cells.
Selected 4 split points out of a possible 156.
Unrefined from 4874 to 4846 cells.
Time = 9.5e-05

absorbed power: 53.548353
DILUPBiCGStab:  Solving for T, Initial residual = 1, Final residual = 1.5356285e-16, No Iterations 1
Thermo: iteration 0 residual: 0.063849192
DILUPBiCGStab:  Solving for T, Initial residual = 0.0029415438, Final residual = 9.2524921e-17, No Iterations 3
Thermo: iteration 1 residual: 0.0074901238
DILUPBiCGStab:  Solving for T, Initial residual = 0.0019037543, Final residual = 8.8771668e-17, No Iterations 3
Thermo: iteration 2 residual: 7.0464723e-10
ExecutionTime = 0.584097 s  ClockTime = 0 s

Courant Number mean: 0 max: 0
deltaT = 1e-06
Selected 0 cells for refinement out of 4846.
Selected 0 split points out of a possible 152.
Time = 9.6e-05

absorbed power: 53.548767
DILUPBiCGStab:  Solving for T, Initial residual = 0.00014093301, Final residual = 4.2252688e-17, No Iterations 4
Thermo: iteration 0 residual: 0.059178606
DILUPBiCGStab:  Solving for T, Initial residual = 8.1686678e-07, Final residual = 5.8043724e-17, No Iterations 3
Thermo: iteration 1 residual: 0.00055423538
DILUPBiCGStab:  Solving for T, Initial residual = 7.8841166e-17, Final residual = 2.1351985e-18, No Iterations 1
Thermo: iteration 2 residual: 7.038814e-14
ExecutionTime = 0.585645 s  ClockTime = 0 s

Courant Number mean: 0 max: 0
deltaT = 1e-06
Selected 0 cells for refinement out of 4846.
Selected 0 split points out of a possible 152.
Time = 9.7e-05

absorbed power: 53.548976
DILUPBiCGStab:  Solving for T, Initial residual = 0.00013987581, Final residual = 4.3544919e-17, No Iterations 4
Thermo: iteration 0 residual: 0.060693591
DILUPBiCGStab:  Solving for T, Initial residual = 6.5837737e-07, Final residual = 9.6963723e-17, No Iterations 3
Thermo: iteration 1 residual: 0.0082109085
DILUPBiCGStab:  Solving for T, Initial residual = 1.1566176e-16, Final residual = 3.2930539e-18, No Iterations 1
Thermo: iteration 2 residual: 4.6518345e-14
ExecutionTime = 0.587204 s  ClockTime = 0 s

Courant Number mean: 0 max: 0
deltaT = 1e-06
Selected 0 cells for refinement out of 4846.
Selected 0 split points out of a possible 152.
Time = 9.8e-05

absorbed power: 53.54898
DILUPBiCGStab:  Solving for T, Initial residual = 0.00013884073, Final residual = 4.3932507e-17, No Iterations 4
Thermo: iteration 0 residual: 0.061555844
DILUPBiCGStab:  Solving for T, Initial residual = 1.0461922e-16, Final residual = 1.0152877e-18, No Iterations 1
Thermo: iteration 1 residual: 1.7323816e-14
ExecutionTime = 0.588607 s  ClockTime = 0 s

Courant Number mean: 0 max: 0
deltaT = 1e-06
Selected 4 cells for refinement out of 4846.
Refined from 4846 to 4874 cells.
Selected 0 split points out of a possible 156.
Time = 9.9e-05

absorbed power: 53.565231
DILUPBiCGStab:  Solving for T, Initial residual = 0.00013854943, Final residual = 4.1767088e-17, No Iterations 4
Thermo: iteration 0 residual: 0.062275696
DILUPBiCGStab:  Solving for T, Initial residual = 1.2624869e-06, Final residual = 1.3511632e-16, No Iterations 3
Thermo: iteration 1 residual: 0.0061964552
DILUPBiCGStab:  Solving for T, Initial residual = 1.5600409e-16, Final residual = 4.8427016e-18, No Iterations 1
Thermo: iteration 2 residual: 1.050271e-13
ExecutionTime = 0.596591 s  ClockTime = 0 s

Courant Number mean: 0 max: 0
deltaT = 1e-06
Selected 0 cells for refinement out of 4874.
Selected 0 split points out of a possible 156.
Time = 0.0001

absorbed power: 53.565682
DILUPBiCGStab:  Solving for T, Initial residual = 0.00013748848, Final residual = 4.3594582e-17, No Iterations 4
Thermo: iteration 0 residual: 0.060399271
DILUPBiCGStab:  Solving for T, Initial residual = 3.7397165e-08, Final residual = 3.6309497e-17, No Iterations 2
Thermo: iteration 1 residual: 4.05102e-05
DILUPBiCGStab:  Solving for T, Initial residual = 5.3544917e-17, Final residual = 1.0907707e-18, No Iterations 1
Thermo: iteration 2 residual: 1.9484414e-14
ExecutionTime = 0.598262 s  ClockTime = 0 s

Courant Number mean: 0 max: 0
deltaT = 1e-06
Selected 0 cells for refinement out of 4874.
Selected 0 split points out of a possible 156.
Time = 0.000101

absorbed power: 53.565967
DILUPBiCGStab:  Solving for T, Initial residual = 0.0001364639, Final residual = 4.143141e-17, No Iterations 4
Thermo: iteration 0 residual: 0.056860996
DILUPBiCGStab:  Solving for T, Initial residual = 9.9876179e-17, Final residual = 1.3994271e-18, No Iterations 1
Thermo: iteration 1 residual: 1.7319479e-14
ExecutionTime = 0.59978 s  ClockTime = 0 s

Courant Number mean: 0 max: 0
deltaT = 1e-06
Selected 2 cells for refinement out of 4874.
Refined from 4874 to 4888 cells.
Selected 0 split points out of a possible 158.
Time = 0.000102

absorbed power: 53.569199
DILUPBiCGStab:  Solving for T, Initial residual = 0.00013581409, Final residual = 3.9909243e-17, No Iterations 4
Thermo: iteration 0 residual: 0.058469808
DILUPBiCGStab:  Solving for T, Initial residual = 6.6729906e-07, Final residual = 8.365386e-17, No Iterations 3
Thermo: iteration 1 residual: 0.017969756
DILUPBiCGStab:  Solving for T, Initial residual = 1.0574346e-16, Final residual = 2.7955252e-18, No Iterations 1
Thermo: iteration 2 residual: 2.349787e-13
ExecutionTime = 0.608229 s  ClockTime = 0 s

Courant Number mean: 0 max: 0
deltaT = 1e-06
Selected 4 cells for refinement out of 4888.
Refined from 4888 to 4916 cells.
Selected 0 split points out of a possible 162.
Time = 0.000103

absorbed power: 53.579646
DILUPBiCGStab:  Solving for T, Initial residual = 0.0001356139, Final residual = 3.8948491e-17, No Iterations 4
Thermo: iteration 0 residual: 0.059932739
DILUPBiCGStab:  Solving for T, Initial residual = 1.0601957e-06, Final residual = 4.6226871e-17, No Iterations 3
Thermo: iteration 1 residual: 0.016513131
DILUPBiCGStab:  Solving for T, Initial residual = 6.5549495e-17, Final residual = 1.5583532e-18, No Iterations 1
Thermo: iteration 2 residual: 2.1649349e-14
ExecutionTime = 0.616399 s  ClockTime = 0 s

Courant Number mean: 0 max: 0
deltaT = 1e-06
Selected 0 cells for refinement out of 4916.
Selected 2 split points out of a possible 162.
Unrefined from 4916 to 4902 cells.
Time = 0.000104

absorbed power: 53.570142
DILUPBiCGStab:  Solving for T, Initial residual = 0.00013559965, Final residual = 3.8044748e-17, No Iterations 4
Thermo: iteration 0 residual: 0.061247305
DILUPBiCGStab:  Solving for T, Initial residual = 5.0455834e-07, Final residual = 2.7961895e-16, No Iterations 2
Thermo: iteration 1 residual: 0.013648056
DILUPBiCGStab:  Solving for T, Initial residual = 2.9701902e-16, Final residual = 6.846903e-18, No Iterations 1
Thermo: iteration 2 residual: 2.7611247e-13
ExecutionTime = 0.625237 s  ClockTime = 0 s

Courant Number mean: 0 max: 0
deltaT = 1e-06
Selected 0 cells for refinement out of 4902.
Selected 2 split points out of a possible 160.
Unrefined from 4902 to 4888 cells.
Time = 0.000105

absorbed power: 53.567637
DILUPBiCGStab:  Solving for T, Initial residual = 0.40871714, Final residual = 1.5886529e-17, No Iterations 1
Thermo: iteration 0 residual: 0.062431693
DILUPBiCGStab:  Solving for T, Initial residual = 9.8153322e-05, Final residual = 5.6982734e-16, No Iterations 3
Thermo: iteration 1 residual: 0.011806379
DILUPBiCGStab:  Solving for T, Initial residual = 6.1820075e-05, Final residual = 2.0412615e-16, No Iterations 2
Thermo: iteration 2 residual: 4.4894842e-05
DILUPBiCGStab:  Solving for T, Initial residual = 2.2520474e-16, Final residual = 1.2795265e-18, No Iterations 1
Thermo: iteration 3 residual: 5.3923532e-13
ExecutionTime = 0.634214 s  ClockTime = 0 s

Courant Number mean: 0 max: 0
deltaT = 1e-06
Selected 2 cells for refinement out of 4888.
Refined from 4888 to 4902 cells.
Selected 0 split points out of a possible 160.
Time = 0.000106

absorbed power: 53.577991
DILUPBiCGStab:  Solving for T, Initial residual = 0.00013551719, Final residual = 3.6994353e-17, No Iterations 4
Thermo: iteration 0 residual: 0.063484289
DILUPBiCGStab:  Solving for T, Initial residual = 8.897876e-07, Final residual = 3.7443794e-17, No Iterations 3
Thermo: iteration 1 residual: 0.0097225035
DILUPBiCGStab:  Solving for T, Initial residual = 5.7656252e-17, Final residual = 1.213109e-18, No Iterations 1
Thermo: iteration 2 residual: 9.4146912e-14
ExecutionTime = 0.642512 s  ClockTime = 0 s

Courant Number mean: 0 max: 0
deltaT = 1e-06
Selected 0 cells for refinement out of 4902.
Selected 0 split points out of a possible 160.
Time = 0.000107

absorbed power: 53.578371
DILUPBiCGStab:  Solving for T, Initial residual = 0.00013449719, Final residual = 4.2810245e-17, No Iterations 4
Thermo: iteration 0 residual: 0.063568822
DILUPBiCGStab:  Solving for T, Initial residual = 5.0695898e-07, Final residual = 5.6587046e-16, No Iterations 3
Thermo: iteration 1 residual: 0.00056840969
DILUPBiCGStab:  Solving for T, Initial residual = 5.8343397e-16, Final residual = 1.8273084e-17, No Iterations 1
Thermo: iteration 2 residual: 1.0881296e-12
ExecutionTime = 0.644182 s  ClockTime = 0 s

Courant Number mean: 0 max: 0
deltaT = 1e-06
Selected 0 cells for refinement out of 4902.
Selected 0 split points out of a possible 160.
Time = 0.000108

absorbed power: 53.578588
DILUPBiCGStab:  Solving for T, Initial residual = 0.00013359963, Final residual = 4.1889493e-17, No Iterations 4
Thermo: iteration 0 residual: 0.063793049
DILUPBiCGStab:  Solving for T, Initial residual = 1.0151735e-16, Final residual = 1.7329471e-18, No Iterations 1
Thermo: iteration 1 residual: 2.3869795e-14
ExecutionTime = 0.645717 s  ClockTime = 0 s

Courant Number mean: 0 max: 0
deltaT = 1e-06
Selected 0 cells for refinement out of 4902.
Selected 0 split points out of a possible 160.
Time = 0.000109

absorbed power: 53.578642
DILUPBiCGStab:  Solving for T, Initial residual = 0.00013269118, Final residual = 4.1216318e-17, No Iterations 4
Thermo: iteration 0 residual: 0.063985114
DILUPBiCGStab:  Solving for T, Initial residual = 1.0078302e-16, Final residual = 1.7538739e-18, No Iterations 1
Thermo: iteration 1 residual: 2.7089442e-14
ExecutionTime = 0.647267 s  ClockTime = 0 s

Courant Number mean: 0 max: 0
deltaT = 1e-06
Selected 0 cells for refinement out of 4902.
Selected 0 split points out of a possible 160.
Time = 0.00011

absorbed power: 53.578534
DILUPBiCGStab:  Solving for T, Initial residual = 0.00013179544, Final residual = 4.050445e-17, No Iterations 4
Thermo: iteration 0 residual: 0.059833536
DILUPBiCGStab:  Solving for T, Initial residual = 1.8117255e-06, Final residual = 1.4103802e-16, No Iterations 3
Thermo: iteration 1 residual: 0.017654857
DILUPBiCGStab:  Solving for T, Initial residual = 1.6081041e-16, Final residual = 4.8211372e-18, No Iterations 1
Thermo: iteration 2 residual: 4.65461e-14
ExecutionTime = 0.648946 s  ClockTime = 0 s

Courant Number mean: 0 max: 0
deltaT = 1e-06
Selected 4 cells for refinement out of 4902.
Refined from 4902 to 4930 cells.
Selected 8 split points out of a possible 162.
Unrefined from 4930 to 4874 cells.
Redistributing mesh with imbalance 0.1592775
refinementHistory add : found refinementHistory
refinementHistory add : adding refinementHistory 
refinementHistory apply : found refinementHistory
refinementHistory apply : adding refinementHistory 
Time = 0.000111

absorbed power: 53.568831
DILUPBiCGStab:  Solving for T, Initial residual = 0.85864131, Final residual = 1.2347554e-16, No Iterations 1
Thermo: iteration 0 residual: 0.059684325
DILUPBiCGStab:  Solving for T, Initial residual = 0.0040197012, Final residual = 1.4736127e-16, No Iterations 3
Thermo: iteration 1 residual: 0.0017955607
DILUPBiCGStab:  Solving for T, Initial residual = 0.0026193359, Final residual = 1.4358608e-16, No Iterations 3
Thermo: iteration 2 residual: 0.00087141758
DILUPBiCGStab:  Solving for T, Initial residual = 1.7425239e-16, Final residual = 2.7456144e-18, No Iterations 1
Thermo: iteration 3 residual: 4.8738791e-14
ExecutionTime = 0.678951 s  ClockTime = 0 s

Courant Number mean: 0 max: 0
deltaT = 1e-06
Selected 0 cells for refinement out of 4874.
Selected 0 split points out of a possible 154.
Time = 0.000112

absorbed power: 53.570167
DILUPBiCGStab:  Solving for T, Initial residual = 0.00013254034, Final residual = 1.2218294e-16, No Iterations 4
Thermo: iteration 0 residual: 0.06180147
DILUPBiCGStab:  Solving for T, Initial residual = 3.2876326e-08, Final residual = 1.0044177e-16, No Iterations 3
Thermo: iteration 1 residual: 0.00091578979
DILUPBiCGStab:  Solving for T, Initial residual = 1.1915319e-16, Final residual = 3.9565112e-18, No Iterations 1
Thermo: iteration 2 residual: 2.2412627e-13
ExecutionTime = 0.680541 s  ClockTime = 0 s

Courant Number mean: 0 max: 0
deltaT = 1e-06
Selected 0 cells for refinement out of 4874.
Selected 0 split points out of a possible 154.
Time = 0.000113

absorbed power: 53.571301
DILUPBiCGStab:  Solving for T, Initial residual = 0.0001316323, Final residual = 1.2239605e-16, No Iterations 4
Thermo: iteration 0 residual: 0.062532497
DILUPBiCGStab:  Solving for T, Initial residual = 2.9129232e-07, Final residual = 7.6500274e-16, No Iterations 3
Thermo: iteration 1 residual: 0.0079989797
DILUPBiCGStab:  Solving for T, Initial residual = 7.8260152e-16, Final residual = 8.4106653e-18, No Iterations 1
Thermo: iteration 2 residual: 2.6494501e-12
ExecutionTime = 0.682024 s  ClockTime = 0 s

Courant Number mean: 0 max: 0
deltaT = 1e-06
Selected 0 cells for refinement out of 4874.
Selected 0 split points out of a possible 154.
Time = 0.000114

absorbed power: 53.572236
DILUPBiCGStab:  Solving for T, Initial residual = 0.00013075134, Final residual = 1.1587309e-16, No Iterations 4
Thermo: iteration 0 residual: 0.063088377
DILUPBiCGStab:  Solving for T, Initial residual = 2.8616315e-08, Final residual = 1.6434799e-16, No Iterations 3
Thermo: iteration 1 residual: 0.00081065072
DILUPBiCGStab:  Solving for T, Initial residual = 1.823973e-16, Final residual = 5.7459031e-18, No Iterations 1
Thermo: iteration 2 residual: 1.6132928e-13
ExecutionTime = 0.683554 s  ClockTime = 0 s

Courant Number mean: 0 max: 0
deltaT = 1e-06
Selected 0 cells for refinement out of 4874.
Selected 2 split points out of a possible 154.
Unrefined from 4874 to 4860 cells.
Time = 0.000115

absorbed power: 53.563435
DILUPBiCGStab:  Solving for T, Initial residual = 0.00013013222, Final residual = 1.1346072e-16, No Iterations 4
Thermo: iteration 0 residual: 0.055664143
DILUPBiCGStab:  Solving for T, Initial residual = 1.0343387e-06, Final residual = 8.2343912e-17, No Iterations 3
Thermo: iteration 1 residual: 0.003960289
DILUPBiCGStab:  Solving for T, Initial residual = 1.0002884e-16, Final residual = 2.7305075e-18, No Iterations 1
Thermo: iteration 2 residual: 1.5054624e-13
ExecutionTime = 0.693281 s  ClockTime = 0 s

Courant Number mean: 0 max: 0
deltaT = 1e-06
Selected 2 cells for refinement out of 4860.
Refined from 4860 to 4874 cells.
Selected 0 split points out of a possible 154.
Time = 0.000116

absorbed power: 53.567293
DILUPBiCGStab:  Solving for T, Initial residual = 0.00012967847, Final residual = 1.413726e-16, No Iterations 4
Thermo: iteration 0 residual: 0.057393593
DILUPBiCGStab:  Solving for T, Initial residual = 3.0134021e-07, Final residual = 3.9533803e-16, No Iterations 3
Thermo: iteration 1 residual: 0.00033074191
DILUPBiCGStab:  Solving for T, Initial residual = 4.1338469e-16, Final residual = 1.0923602e-17, No Iterations 1
Thermo: iteration 2 residual: 7.7093887e-13
ExecutionTime = 0.701884 s  ClockTime = 0 s

Courant Number mean: 0 max: 0
deltaT = 1e-06
Selected 2 cells for refinement out of 4874.
Refined from 4874 to 4888 cells.
Selected 0 split points out of a possible 156.
Time = 0.000117

absorbed power: 53.578525
DILUPBiCGStab:  Solving for T, Initial residual = 0.00012929183, Final residual = 1.3943035e-16, No Iterations 4
Thermo: iteration 0 residual: 0.058931776
DILUPBiCGStab:  Solving for T, Initial residual = 7.1233137e-07, Final residual = 7.0204348e-17, No Iterations 3
Thermo: iteration 1 residual: 0.01493832
DILUPBiCGStab:  Solving for T, Initial residual = 8.8956245e-17, Final residual = 2.2167773e-18, No Iterations 1
Thermo: iteration 2 residual: 6.4426242e-13
ExecutionTime = 0.710438 s  ClockTime = 0 s

Courant Number mean: 0 max: 0
deltaT = 1e-06
Selected 0 cells for refinement out of 4888.
Selected 0 split points out of a possible 156.
Time = 0.000118

absorbed power: 53.579396
DILUPBiCGStab:  Solving for T, Initial residual = 0.00012854142, Final residual = 1.2883951e-16, No Iterations 4
Thermo: iteration 0 residual: 0.060332942
DILUPBiCGStab:  Solving for T, Initial residual = 1.3449926e-06, Final residual = 5.1592246e-17, No Iterations 3
Thermo: iteration 1 residual: 0.018195548
DILUPBiCGStab:  Solving for T, Initial residual = 7.0370422e-17, Final residual = 1.7231898e-18, No Iterations 1
Thermo: iteration 2 residual: 1.3533619e-13
ExecutionTime = 0.711973 s  ClockTime = 0 s

Courant Number mean: 0 max: 0
deltaT = 1e-06
Selected 0 cells for refinement out of 4888.
Selected 4 split points out of a possible 156.
Unrefined from 4888 to 4860 cells.
Time = 0.000119

absorbed power: 53.567813
DILUPBiCGStab:  Solving for T, Initial residual = 0.00012870043, Final residual = 1.221466e-16, No Iterations 4
Thermo: iteration 0 residual: 0.061585609
DILUPBiCGStab:  Solving for T, Initial residual = 1.7913599e-16, Final residual = 5.2007672e-18, No Iterations 1
Thermo: iteration 1 residual: 1.5376589e-13
ExecutionTime = 0.721336 s  ClockTime = 0 s

Courant Number mean: 0 max: 0
deltaT = 1e-06
Selected 0 cells for refinement out of 4860.
Selected 0 split points out of a possible 154.
Time = 0.00012

absorbed power: 53.56868
DILUPBiCGStab:  Solving for T, Initial residual = 0.00012796296, Final residual = 1.1849232e-16, No Iterations 4
Thermo: iteration 0 residual: 0.062716979
DILUPBiCGStab:  Solving for T, Initial residual = 1.7297641e-16, Final residual = 4.9561244e-18, No Iterations 1
Thermo: iteration 1 residual: 1.3317125e-13
ExecutionTime = 0.72274 s  ClockTime = 0 s

Courant Number mean: 0 max: 0
deltaT = 1e-06
Selected 0 cells for refinement out of 4860.
Selected 0 split points out of a possible 154.
Time = 0.000121

absorbed power: 53.569362
DILUPBiCGStab:  Solving for T, Initial residual = 0.00012724046, Final residual = 1.1456602e-16, No Iterations 4
Thermo: iteration 0 residual: 0.063729156
DILUPBiCGStab:  Solving for T, Initial residual = 1.6698135e-07, Final residual = 1.2196635e-16, No Iterations 2
Thermo: iteration 1 residual: 0.0047284775
DILUPBiCGStab:  Solving for T, Initial residual = 1.3993958e-16, Final residual = 3.1994956e-18, No Iterations 1
Thermo: iteration 2 residual: 1.2667645e-13
ExecutionTime = 0.724257 s  ClockTime = 0 s

Courant Number mean: 0 max: 0
deltaT = 1e-06
Selected 0 cells for refinement out of 4860.
Selected 2 split points out of a possible 154.
Unrefined from 4860 to 4846 cells.
Time = 0.000122

absorbed power: 53.566847
DILUPBiCGStab:  Solving for T, Initial residual = 0.0001277955, Final residual = 1.1143301e-16, No Iterations 4
Thermo: iteration 0 residual: 0.063821268
DILUPBiCGStab:  Solving for T, Initial residual = 5.9934932e-07, Final residual = 6.9035491e-17, No Iterations 3
Thermo: iteration 1 residual: 0.0088289622
DILUPBiCGStab:  Solving for T, Initial residual = 8.7676912e-17, Final residual = 2.1079987e-18, No Iterations 1
Thermo: iteration 2 residual: 5.3068661e-14
ExecutionTime = 0.733795 s  ClockTime = 0 s

Courant Number mean: 0 max: 0
deltaT = 1e-06
Selected 0 cells for refinement out of 4846.
Selected 0 split points out of a possible 154.
Time = 0.000123

absorbed power: 53.56724
DILUPBiCGStab:  Solving for T, Initial residual = 0.00012709425, Final residual = 1.029328e-16, No Iterations 4
Thermo: iteration 0 residual: 0.064017581
DILUPBiCGStab:  Solving for T, Initial residual = 6.3287627e-07, Final residual = 6.707385e-17, No Iterations 3
Thermo: iteration 1 residual: 0.013601296
DILUPBiCGStab:  Solving for T, Initial residual = 8.4984632e-17, Final residual = 3.3148597e-18, No Iterations 1
Thermo: iteration 2 residual: 2.3930857e-13
ExecutionTime = 0.73543 s  ClockTime = 0 s

Courant Number mean: 0 max: 0
deltaT = 1e-06
Selected 0 cells for refinement out of 4846.
Selected 0 split points out of a possible 154.
Time = 0.000124

absorbed power: 53.567451
DILUPBiCGStab:  Solving for T, Initial residual = 0.0001263997, Final residual = 9.5263148e-17, No Iterations 4
Thermo: iteration 0 residual: 0.064189394
DILUPBiCGStab:  Solving for T, Initial residual = 3.2323176e-07, Final residual = 3.0262724e-17, No Iterations 3
Thermo: iteration 1 residual: 0.002893839
DILUPBiCGStab:  Solving for T, Initial residual = 4.8722103e-17, Final residual = 1.3345249e-18, No Iterations 1
Thermo: iteration 2 residual: 4.0079051e-14
ExecutionTime = 0.737508 s  ClockTime = 0 s

Courant Number mean: 0 max: 0
deltaT = 1e-06
Selected 0 cells for refinement out of 4846.
Selected 0 split points out of a possible 154.
Time = 0.000125

absorbed power: 53.56748
DILUPBiCGStab:  Solving for T, Initial residual = 0.00012569585, Final residual = 1.3948822e-16, No Iterations 4
Thermo: iteration 0 residual: 0.060063647
DILUPBiCGStab:  Solving for T, Initial residual = 1.1786059e-06, Final residual = 4.5538365e-17, No Iterations 3
Thermo: iteration 1 residual: 0.015376438
DILUPBiCGStab:  Solving for T, Initial residual = 6.1834362e-17, Final residual = 1.7415985e-18, No Iterations 1
Thermo: iteration 2 residual: 1.1479706e-13
ExecutionTime = 0.739249 s  ClockTime = 0 s

Courant Number mean: 0 max: 0
deltaT = 1e-06
Selected 2 cells for refinement out of 4846.
Refined from 4846 to 4860 cells.
Selected 0 split points out of a possible 156.
[...]
Thermo: iteration 0 residual: 0
ExecutionTime = 16.410696 s  ClockTime = 16 s

Courant Number mean: 0 max: 0
deltaT = 1e-06
Selected 0 cells for refinement out of 3600.
Selected 0 split points out of a possible 0.
Time = 0.003946

absorbed power: 0
DILUPBiCGStab:  Solving for T, Initial residual = 0.0001475083, Final residual = 2.6162616e-18, No Iterations 2
Thermo: iteration 0 residual: 0
ExecutionTime = 16.411817 s  ClockTime = 16 s

Courant Number mean: 0 max: 0
deltaT = 1e-06
Selected 0 cells for refinement out of 3600.
Selected 0 split points out of a possible 0.
Time = 0.003947

absorbed power: 0
DILUPBiCGStab:  Solving for T, Initial residual = 0.00014746113, Final residual = 2.6136528e-18, No Iterations 2
Thermo: iteration 0 residual: 0
ExecutionTime = 16.412747 s  ClockTime = 16 s

Courant Number mean: 0 max: 0
deltaT = 1e-06
Selected 0 cells for refinement out of 3600.
Selected 0 split points out of a possible 0.
Time = 0.003948

absorbed power: 0
DILUPBiCGStab:  Solving for T, Initial residual = 0.00014741399, Final residual = 2.6110542e-18, No Iterations 2
Thermo: iteration 0 residual: 0
ExecutionTime = 16.413578 s  ClockTime = 16 s

Courant Number mean: 0 max: 0
deltaT = 1e-06
Selected 0 cells for refinement out of 3600.
Selected 0 split points out of a possible 0.
Time = 0.003949

absorbed power: 0
DILUPBiCGStab:  Solving for T, Initial residual = 0.00014736686, Final residual = 2.6084713e-18, No Iterations 2
Thermo: iteration 0 residual: 0
ExecutionTime = 16.414465 s  ClockTime = 16 s

Courant Number mean: 0 max: 0
deltaT = 1e-06
Selected 0 cells for refinement out of 3600.
Selected 0 split points out of a possible 0.
Time = 0.00395

absorbed power: 0
DILUPBiCGStab:  Solving for T, Initial residual = 0.00014731975, Final residual = 2.6058913e-18, No Iterations 2
Thermo: iteration 0 residual: 0
ExecutionTime = 16.415321 s  ClockTime = 16 s

Courant Number mean: 0 max: 0
deltaT = 1e-06
Selected 0 cells for refinement out of 3600.
Selected 0 split points out of a possible 0.
Time = 0.003951

absorbed power: 0
DILUPBiCGStab:  Solving for T, Initial residual = 0.00014727266, Final residual = 2.6033135e-18, No Iterations 2
Thermo: iteration 0 residual: 0
ExecutionTime = 16.416186 s  ClockTime = 16 s

Courant Number mean: 0 max: 0
deltaT = 1e-06
Selected 0 cells for refinement out of 3600.
Selected 0 split points out of a possible 0.
Time = 0.003952

absorbed power: 0
DILUPBiCGStab:  Solving for T, Initial residual = 0.00014722559, Final residual = 2.600738e-18, No Iterations 2
Thermo: iteration 0 residual: 0
ExecutionTime = 16.41713 s  ClockTime = 16 s

Courant Number mean: 0 max: 0
deltaT = 1e-06
Selected 0 cells for refinement out of 3600.
Selected 0 split points out of a possible 0.
Time = 0.003953

absorbed power: 0
DILUPBiCGStab:  Solving for T, Initial residual = 0.00014717854, Final residual = 2.5981843e-18, No Iterations 2
Thermo: iteration 0 residual: 0
ExecutionTime = 16.418203 s  ClockTime = 16 s

Courant Number mean: 0 max: 0
deltaT = 1e-06
Selected 0 cells for refinement out of 3600.
Selected 0 split points out of a possible 0.
Time = 0.003954

absorbed power: 0
DILUPBiCGStab:  Solving for T, Initial residual = 0.00014713148, Final residual = 2.5956366e-18, No Iterations 2
Thermo: iteration 0 residual: 0
ExecutionTime = 16.419146 s  ClockTime = 16 s

Courant Number mean: 0 max: 0
deltaT = 1e-06
Selected 0 cells for refinement out of 3600.
Selected 0 split points out of a possible 0.
Time = 0.003955

absorbed power: 0
DILUPBiCGStab:  Solving for T, Initial residual = 0.00014708443, Final residual = 2.5930908e-18, No Iterations 2
Thermo: iteration 0 residual: 0
ExecutionTime = 16.419984 s  ClockTime = 16 s

Courant Number mean: 0 max: 0
deltaT = 1e-06
Selected 0 cells for refinement out of 3600.
Selected 0 split points out of a possible 0.
Time = 0.003956

absorbed power: 0
DILUPBiCGStab:  Solving for T, Initial residual = 0.0001470374, Final residual = 2.5905543e-18, No Iterations 2
Thermo: iteration 0 residual: 0
ExecutionTime = 16.420825 s  ClockTime = 16 s

Courant Number mean: 0 max: 0
deltaT = 1e-06
Selected 0 cells for refinement out of 3600.
Selected 0 split points out of a possible 0.
Time = 0.003957

absorbed power: 0
DILUPBiCGStab:  Solving for T, Initial residual = 0.00014699039, Final residual = 2.5880377e-18, No Iterations 2
Thermo: iteration 0 residual: 0
ExecutionTime = 16.421692 s  ClockTime = 16 s

Courant Number mean: 0 max: 0
deltaT = 1e-06
Selected 0 cells for refinement out of 3600.
Selected 0 split points out of a possible 0.
Time = 0.003958

absorbed power: 0
DILUPBiCGStab:  Solving for T, Initial residual = 0.0001469434, Final residual = 2.5855291e-18, No Iterations 2
Thermo: iteration 0 residual: 0
ExecutionTime = 16.422542 s  ClockTime = 16 s

Courant Number mean: 0 max: 0
deltaT = 1e-06
Selected 0 cells for refinement out of 3600.
Selected 0 split points out of a possible 0.
Time = 0.003959

absorbed power: 0
DILUPBiCGStab:  Solving for T, Initial residual = 0.00014689643, Final residual = 2.5830565e-18, No Iterations 2
Thermo: iteration 0 residual: 0
ExecutionTime = 16.423366 s  ClockTime = 16 s

Courant Number mean: 0 max: 0
deltaT = 1e-06
Selected 0 cells for refinement out of 3600.
Selected 0 split points out of a possible 0.
Time = 0.00396

absorbed power: 0
DILUPBiCGStab:  Solving for T, Initial residual = 0.00014684947, Final residual = 2.5805882e-18, No Iterations 2
Thermo: iteration 0 residual: 0
ExecutionTime = 16.424193 s  ClockTime = 16 s

Courant Number mean: 0 max: 0
deltaT = 1e-06
Selected 0 cells for refinement out of 3600.
Selected 0 split points out of a possible 0.
Time = 0.003961

absorbed power: 0
DILUPBiCGStab:  Solving for T, Initial residual = 0.00014680254, Final residual = 2.5781218e-18, No Iterations 2
Thermo: iteration 0 residual: 0
ExecutionTime = 16.42505 s  ClockTime = 16 s

Courant Number mean: 0 max: 0
deltaT = 1e-06
Selected 0 cells for refinement out of 3600.
Selected 0 split points out of a possible 0.
Time = 0.003962

absorbed power: 0
DILUPBiCGStab:  Solving for T, Initial residual = 0.0001467556, Final residual = 2.5756671e-18, No Iterations 2
Thermo: iteration 0 residual: 0
ExecutionTime = 16.425962 s  ClockTime = 16 s

Courant Number mean: 0 max: 0
deltaT = 1e-06
Selected 0 cells for refinement out of 3600.
Selected 0 split points out of a possible 0.
Time = 0.003963

absorbed power: 0
DILUPBiCGStab:  Solving for T, Initial residual = 0.00014670866, Final residual = 2.5732257e-18, No Iterations 2
Thermo: iteration 0 residual: 0
ExecutionTime = 16.426775 s  ClockTime = 16 s

Courant Number mean: 0 max: 0
deltaT = 1e-06
Selected 0 cells for refinement out of 3600.
Selected 0 split points out of a possible 0.
Time = 0.003964

absorbed power: 0
DILUPBiCGStab:  Solving for T, Initial residual = 0.00014666174, Final residual = 2.570802e-18, No Iterations 2
Thermo: iteration 0 residual: 0
ExecutionTime = 16.427591 s  ClockTime = 16 s

Courant Number mean: 0 max: 0
deltaT = 1e-06
Selected 0 cells for refinement out of 3600.
Selected 0 split points out of a possible 0.
Time = 0.003965

absorbed power: 0
DILUPBiCGStab:  Solving for T, Initial residual = 0.00014661484, Final residual = 2.5683801e-18, No Iterations 2
Thermo: iteration 0 residual: 0
ExecutionTime = 16.428397 s  ClockTime = 16 s

Courant Number mean: 0 max: 0
deltaT = 1e-06
Selected 0 cells for refinement out of 3600.
Selected 0 split points out of a possible 0.
Time = 0.003966

absorbed power: 0
DILUPBiCGStab:  Solving for T, Initial residual = 0.00014656795, Final residual = 2.5659602e-18, No Iterations 2
Thermo: iteration 0 residual: 0
ExecutionTime = 16.429207 s  ClockTime = 16 s

Courant Number mean: 0 max: 0
deltaT = 1e-06
Selected 0 cells for refinement out of 3600.
Selected 0 split points out of a possible 0.
Time = 0.003967

absorbed power: 0
DILUPBiCGStab:  Solving for T, Initial residual = 0.00014652109, Final residual = 2.5635439e-18, No Iterations 2
Thermo: iteration 0 residual: 0
ExecutionTime = 16.430292 s  ClockTime = 16 s

Courant Number mean: 0 max: 0
deltaT = 1e-06
Selected 0 cells for refinement out of 3600.
Selected 0 split points out of a possible 0.
Time = 0.003968

absorbed power: 0
DILUPBiCGStab:  Solving for T, Initial residual = 0.00014647424, Final residual = 2.5611443e-18, No Iterations 2
Thermo: iteration 0 residual: 0
ExecutionTime = 16.431404 s  ClockTime = 16 s

Courant Number mean: 0 max: 0
deltaT = 1e-06
Selected 0 cells for refinement out of 3600.
Selected 0 split points out of a possible 0.
Time = 0.003969

absorbed power: 0
DILUPBiCGStab:  Solving for T, Initial residual = 0.00014642754, Final residual = 2.5587467e-18, No Iterations 2
Thermo: iteration 0 residual: 0
ExecutionTime = 16.43259 s  ClockTime = 16 s

Courant Number mean: 0 max: 0
deltaT = 1e-06
Selected 0 cells for refinement out of 3600.
Selected 0 split points out of a possible 0.
Time = 0.00397

absorbed power: 0
DILUPBiCGStab:  Solving for T, Initial residual = 0.00014638098, Final residual = 2.5563512e-18, No Iterations 2
Thermo: iteration 0 residual: 0
ExecutionTime = 16.433656 s  ClockTime = 16 s

Courant Number mean: 0 max: 0
deltaT = 1e-06
Selected 0 cells for refinement out of 3600.
Selected 0 split points out of a possible 0.
Time = 0.003971

absorbed power: 0
DILUPBiCGStab:  Solving for T, Initial residual = 0.00014633442, Final residual = 2.5539586e-18, No Iterations 2
Thermo: iteration 0 residual: 0
ExecutionTime = 16.43471 s  ClockTime = 16 s

Courant Number mean: 0 max: 0
deltaT = 1e-06
Selected 0 cells for refinement out of 3600.
Selected 0 split points out of a possible 0.
Time = 0.003972

absorbed power: 0
DILUPBiCGStab:  Solving for T, Initial residual = 0.00014628788, Final residual = 2.5515684e-18, No Iterations 2
Thermo: iteration 0 residual: 0
ExecutionTime = 16.435652 s  ClockTime = 16 s

Courant Number mean: 0 max: 0
deltaT = 1e-06
Selected 0 cells for refinement out of 3600.
Selected 0 split points out of a possible 0.
Time = 0.003973

absorbed power: 0
DILUPBiCGStab:  Solving for T, Initial residual = 0.00014624136, Final residual = 2.54918e-18, No Iterations 2
Thermo: iteration 0 residual: 0
ExecutionTime = 16.436502 s  ClockTime = 16 s

Courant Number mean: 0 max: 0
deltaT = 1e-06
Selected 0 cells for refinement out of 3600.
Selected 0 split points out of a possible 0.
Time = 0.003974

absorbed power: 0
DILUPBiCGStab:  Solving for T, Initial residual = 0.00014619491, Final residual = 2.5467936e-18, No Iterations 2
Thermo: iteration 0 residual: 0
ExecutionTime = 16.437632 s  ClockTime = 16 s

Courant Number mean: 0 max: 0
deltaT = 1e-06
Selected 0 cells for refinement out of 3600.
Selected 0 split points out of a possible 0.
Time = 0.003975

absorbed power: 0
DILUPBiCGStab:  Solving for T, Initial residual = 0.00014614847, Final residual = 2.5444088e-18, No Iterations 2
Thermo: iteration 0 residual: 0
ExecutionTime = 16.438521 s  ClockTime = 16 s

Courant Number mean: 0 max: 0
deltaT = 1e-06
Selected 0 cells for refinement out of 3600.
Selected 0 split points out of a possible 0.
Time = 0.003976

absorbed power: 0
DILUPBiCGStab:  Solving for T, Initial residual = 0.00014610202, Final residual = 2.5420284e-18, No Iterations 2
Thermo: iteration 0 residual: 0
ExecutionTime = 16.439312 s  ClockTime = 16 s

Courant Number mean: 0 max: 0
deltaT = 1e-06
Selected 0 cells for refinement out of 3600.
Selected 0 split points out of a possible 0.
Time = 0.003977

absorbed power: 0
DILUPBiCGStab:  Solving for T, Initial residual = 0.00014605559, Final residual = 2.5396515e-18, No Iterations 2
Thermo: iteration 0 residual: 0
ExecutionTime = 16.44012 s  ClockTime = 16 s

Courant Number mean: 0 max: 0
deltaT = 1e-06
Selected 0 cells for refinement out of 3600.
Selected 0 split points out of a possible 0.
Time = 0.003978

absorbed power: 0
DILUPBiCGStab:  Solving for T, Initial residual = 0.00014600917, Final residual = 2.5372765e-18, No Iterations 2
Thermo: iteration 0 residual: 0
ExecutionTime = 16.440954 s  ClockTime = 16 s

Courant Number mean: 0 max: 0
deltaT = 1e-06
Selected 0 cells for refinement out of 3600.
Selected 0 split points out of a possible 0.
Time = 0.003979

absorbed power: 0
DILUPBiCGStab:  Solving for T, Initial residual = 0.00014596277, Final residual = 2.5349041e-18, No Iterations 2
Thermo: iteration 0 residual: 0
ExecutionTime = 16.441794 s  ClockTime = 16 s

Courant Number mean: 0 max: 0
deltaT = 1e-06
Selected 0 cells for refinement out of 3600.
Selected 0 split points out of a possible 0.
Time = 0.00398

absorbed power: 0
DILUPBiCGStab:  Solving for T, Initial residual = 0.00014591639, Final residual = 2.5325339e-18, No Iterations 2
Thermo: iteration 0 residual: 0
ExecutionTime = 16.442635 s  ClockTime = 16 s

Courant Number mean: 0 max: 0
deltaT = 1e-06
Selected 0 cells for refinement out of 3600.
Selected 0 split points out of a possible 0.
Time = 0.003981

absorbed power: 0
DILUPBiCGStab:  Solving for T, Initial residual = 0.00014587003, Final residual = 2.5301658e-18, No Iterations 2
Thermo: iteration 0 residual: 0
ExecutionTime = 16.443658 s  ClockTime = 16 s

Courant Number mean: 0 max: 0
deltaT = 1e-06
Selected 0 cells for refinement out of 3600.
Selected 0 split points out of a possible 0.
Time = 0.003982

absorbed power: 0
DILUPBiCGStab:  Solving for T, Initial residual = 0.00014582369, Final residual = 2.5277997e-18, No Iterations 2
Thermo: iteration 0 residual: 0
ExecutionTime = 16.444816 s  ClockTime = 16 s

Courant Number mean: 0 max: 0
deltaT = 1e-06
Selected 0 cells for refinement out of 3600.
Selected 0 split points out of a possible 0.
Time = 0.003983

absorbed power: 0
DILUPBiCGStab:  Solving for T, Initial residual = 0.00014577736, Final residual = 2.5254354e-18, No Iterations 2
Thermo: iteration 0 residual: 0
ExecutionTime = 16.445775 s  ClockTime = 16 s

Courant Number mean: 0 max: 0
deltaT = 1e-06
Selected 0 cells for refinement out of 3600.
Selected 0 split points out of a possible 0.
Time = 0.003984

absorbed power: 0
DILUPBiCGStab:  Solving for T, Initial residual = 0.00014573106, Final residual = 2.5230729e-18, No Iterations 2
Thermo: iteration 0 residual: 0
ExecutionTime = 16.446716 s  ClockTime = 16 s

Courant Number mean: 0 max: 0
deltaT = 1e-06
Selected 0 cells for refinement out of 3600.
Selected 0 split points out of a possible 0.
Time = 0.003985

absorbed power: 0
DILUPBiCGStab:  Solving for T, Initial residual = 0.00014568477, Final residual = 2.5207125e-18, No Iterations 2
Thermo: iteration 0 residual: 0
ExecutionTime = 16.447711 s  ClockTime = 16 s

Courant Number mean: 0 max: 0
deltaT = 1e-06
Selected 0 cells for refinement out of 3600.
Selected 0 split points out of a possible 0.
Time = 0.003986

absorbed power: 0
DILUPBiCGStab:  Solving for T, Initial residual = 0.0001456385, Final residual = 2.518354e-18, No Iterations 2
Thermo: iteration 0 residual: 0
ExecutionTime = 16.44878 s  ClockTime = 16 s

Courant Number mean: 0 max: 0
deltaT = 1e-06
Selected 0 cells for refinement out of 3600.
Selected 0 split points out of a possible 0.
Time = 0.003987

absorbed power: 0
DILUPBiCGStab:  Solving for T, Initial residual = 0.00014559226, Final residual = 2.5160068e-18, No Iterations 2
Thermo: iteration 0 residual: 0
ExecutionTime = 16.449907 s  ClockTime = 16 s

Courant Number mean: 0 max: 0
deltaT = 1e-06
Selected 0 cells for refinement out of 3600.
Selected 0 split points out of a possible 0.
Time = 0.003988

absorbed power: 0
DILUPBiCGStab:  Solving for T, Initial residual = 0.00014554603, Final residual = 2.5136628e-18, No Iterations 2
Thermo: iteration 0 residual: 0
ExecutionTime = 16.450989 s  ClockTime = 16 s

Courant Number mean: 0 max: 0
deltaT = 1e-06
Selected 0 cells for refinement out of 3600.
Selected 0 split points out of a possible 0.
Time = 0.003989

absorbed power: 0
DILUPBiCGStab:  Solving for T, Initial residual = 0.00014549982, Final residual = 2.5113208e-18, No Iterations 2
Thermo: iteration 0 residual: 0
ExecutionTime = 16.451999 s  ClockTime = 16 s

Courant Number mean: 0 max: 0
deltaT = 1e-06
Selected 0 cells for refinement out of 3600.
Selected 0 split points out of a possible 0.
Time = 0.00399

absorbed power: 0
DILUPBiCGStab:  Solving for T, Initial residual = 0.00014545363, Final residual = 2.5089808e-18, No Iterations 2
Thermo: iteration 0 residual: 0
ExecutionTime = 16.453054 s  ClockTime = 16 s

Courant Number mean: 0 max: 0
deltaT = 1e-06
Selected 0 cells for refinement out of 3600.
Selected 0 split points out of a possible 0.
Time = 0.003991

absorbed power: 0
DILUPBiCGStab:  Solving for T, Initial residual = 0.00014540746, Final residual = 2.5066429e-18, No Iterations 2
Thermo: iteration 0 residual: 0
ExecutionTime = 16.453904 s  ClockTime = 16 s

Courant Number mean: 0 max: 0
deltaT = 1e-06
Selected 0 cells for refinement out of 3600.
Selected 0 split points out of a possible 0.
Time = 0.003992

absorbed power: 0
DILUPBiCGStab:  Solving for T, Initial residual = 0.0001453613, Final residual = 2.5043073e-18, No Iterations 2
Thermo: iteration 0 residual: 0
ExecutionTime = 16.454745 s  ClockTime = 16 s

Courant Number mean: 0 max: 0
deltaT = 1e-06
Selected 0 cells for refinement out of 3600.
Selected 0 split points out of a possible 0.
Time = 0.003993

absorbed power: 0
DILUPBiCGStab:  Solving for T, Initial residual = 0.00014531515, Final residual = 2.5019732e-18, No Iterations 2
Thermo: iteration 0 residual: 0
ExecutionTime = 16.455574 s  ClockTime = 16 s

Courant Number mean: 0 max: 0
deltaT = 1e-06
Selected 0 cells for refinement out of 3600.
Selected 0 split points out of a possible 0.
Time = 0.003994

absorbed power: 0
DILUPBiCGStab:  Solving for T, Initial residual = 0.00014526899, Final residual = 2.4996404e-18, No Iterations 2
Thermo: iteration 0 residual: 0
ExecutionTime = 16.456417 s  ClockTime = 16 s

Courant Number mean: 0 max: 0
deltaT = 1e-06
Selected 0 cells for refinement out of 3600.
Selected 0 split points out of a possible 0.
Time = 0.003995

absorbed power: 0
DILUPBiCGStab:  Solving for T, Initial residual = 0.00014522292, Final residual = 2.4973094e-18, No Iterations 2
Thermo: iteration 0 residual: 0
ExecutionTime = 16.457282 s  ClockTime = 16 s

Courant Number mean: 0 max: 0
deltaT = 1e-06
Selected 0 cells for refinement out of 3600.
Selected 0 split points out of a possible 0.
Time = 0.003996

absorbed power: 0
DILUPBiCGStab:  Solving for T, Initial residual = 0.00014517689, Final residual = 2.4949803e-18, No Iterations 2
Thermo: iteration 0 residual: 0
ExecutionTime = 16.458134 s  ClockTime = 16 s

Courant Number mean: 0 max: 0
deltaT = 1e-06
Selected 0 cells for refinement out of 3600.
Selected 0 split points out of a possible 0.
Time = 0.003997

absorbed power: 0
DILUPBiCGStab:  Solving for T, Initial residual = 0.00014513089, Final residual = 2.4926534e-18, No Iterations 2
Thermo: iteration 0 residual: 0
ExecutionTime = 16.458983 s  ClockTime = 16 s

Courant Number mean: 0 max: 0
deltaT = 1e-06
Selected 0 cells for refinement out of 3600.
Selected 0 split points out of a possible 0.
Time = 0.003998

absorbed power: 0
DILUPBiCGStab:  Solving for T, Initial residual = 0.0001450849, Final residual = 2.4903283e-18, No Iterations 2
Thermo: iteration 0 residual: 0
ExecutionTime = 16.459936 s  ClockTime = 16 s

Courant Number mean: 0 max: 0
deltaT = 1e-06
Selected 0 cells for refinement out of 3600.
Selected 0 split points out of a possible 0.
Time = 0.003999

absorbed power: 0
DILUPBiCGStab:  Solving for T, Initial residual = 0.00014503893, Final residual = 2.488005e-18, No Iterations 2
Thermo: iteration 0 residual: 0
ExecutionTime = 16.461063 s  ClockTime = 16 s

Courant Number mean: 0 max: 0
deltaT = 1e-06
Selected 0 cells for refinement out of 3600.
Selected 0 split points out of a possible 0.
Time = 0.004

absorbed power: 0
DILUPBiCGStab:  Solving for T, Initial residual = 0.00014499294, Final residual = 2.485683e-18, No Iterations 2
Thermo: iteration 0 residual: 0
ExecutionTime = 16.462401 s  ClockTime = 16 s

Finalising parallel run
